<?xml version="1.0" encoding="UTF-8"?>

<!-- generated on 2021-12-05 18:23:16 by Eclipse SUMO netedit Version 1.9.2
<configuration xmlns:xsi="http://www.w3.org/2001/XMLSchema-instance" xsi:noNamespaceSchemaLocation="http://sumo.dlr.de/xsd/netconvertConfiguration.xsd">

    <input>
        <sumo-net-file value="/Users/kai/Documents/Github/scenic-sumo/Map/ThreeLane/ThreeLane.net.xml"/>
    </input>

    <output>
        <output-file value="/Users/kai/Documents/Github/scenic-sumo/Map/ThreeLane/CurveyRoad.net.xml"/>
    </output>

    <processing>
        <geometry.min-radius.fix.railways value="false"/>
        <geometry.max-grade.fix value="false"/>
        <offset.disable-normalization value="true"/>
        <lefthand value="false"/>
    </processing>

    <junctions>
        <no-turnarounds value="true"/>
        <junctions.corner-detail value="5"/>
        <junctions.limit-turn-speed value="5.5"/>
        <rectangular-lane-cut value="false"/>
    </junctions>

    <pedestrian>
        <walkingareas value="false"/>
    </pedestrian>

    <report>
        <aggregate-warnings value="5"/>
    </report>

</configuration>
-->

<net version="1.9" junctionCornerDetail="5" limitTurnSpeed="5.50" xmlns:xsi="http://www.w3.org/2001/XMLSchema-instance" xsi:noNamespaceSchemaLocation="http://sumo.dlr.de/xsd/net_file.xsd">

    <location netOffset="-494225.46,-3228441.43" convBoundary="658.39,62.57,1644.34,1062.15" origBoundary="-81.059398,29.183689,-81.042348,29.195629" projParameter="+proj=utm +zone=17 +ellps=WGS84 +datum=WGS84 +units=m +no_defs"/>

    <type id="highway.bridleway" priority="1" numLanes="1" speed="2.78" allow="pedestrian" oneway="1" width="2.00"/>
    <type id="highway.bus_guideway" priority="1" numLanes="1" speed="27.78" allow="bus" oneway="1"/>
    <type id="highway.cycleway" priority="1" numLanes="1" speed="8.33" allow="bicycle" oneway="1" width="1.00"/>
    <type id="highway.footway" priority="1" numLanes="1" speed="2.78" allow="pedestrian" oneway="1" width="2.00"/>
    <type id="highway.ford" priority="1" numLanes="1" speed="2.78" allow="army" oneway="1"/>
    <type id="highway.living_street" priority="2" numLanes="1" speed="2.78" disallow="tram rail_urban rail rail_electric rail_fast ship" oneway="1"/>
    <type id="highway.motorway" priority="14" numLanes="2" speed="39.44" allow="private emergency authority army vip passenger hov taxi bus coach delivery truck trailer motorcycle evehicle custom1 custom2" oneway="1"/>
    <type id="highway.motorway_link" priority="9" numLanes="1" speed="22.22" allow="private emergency authority army vip passenger hov taxi bus coach delivery truck trailer motorcycle evehicle custom1 custom2" oneway="1"/>
    <type id="highway.path" priority="1" numLanes="1" speed="2.78" allow="pedestrian bicycle" oneway="1" width="2.00"/>
    <type id="highway.pedestrian" priority="1" numLanes="1" speed="2.78" allow="pedestrian" oneway="1" width="2.00"/>
    <type id="highway.primary" priority="12" numLanes="2" speed="27.78" disallow="tram rail_urban rail rail_electric rail_fast ship" oneway="1"/>
    <type id="highway.primary_link" priority="7" numLanes="1" speed="22.22" disallow="tram rail_urban rail rail_electric rail_fast ship" oneway="1"/>
    <type id="highway.raceway" priority="15" numLanes="2" speed="83.33" allow="vip" oneway="1"/>
    <type id="highway.residential" priority="3" numLanes="1" speed="13.89" disallow="tram rail_urban rail rail_electric rail_fast ship" oneway="1"/>
    <type id="highway.secondary" priority="11" numLanes="1" speed="27.78" disallow="tram rail_urban rail rail_electric rail_fast ship" oneway="1"/>
    <type id="highway.secondary_link" priority="6" numLanes="1" speed="22.22" disallow="tram rail_urban rail rail_electric rail_fast ship" oneway="1"/>
    <type id="highway.service" priority="1" numLanes="1" speed="5.56" allow="private emergency authority army vip passenger hov taxi bus coach delivery truck trailer motorcycle evehicle" oneway="1"/>
    <type id="highway.stairs" priority="1" numLanes="1" speed="1.39" allow="pedestrian" oneway="1" width="2.00"/>
    <type id="highway.step" priority="1" numLanes="1" speed="1.39" allow="pedestrian" oneway="1" width="2.00"/>
    <type id="highway.steps" priority="1" numLanes="1" speed="1.39" allow="pedestrian" oneway="1" width="2.00"/>
    <type id="highway.tertiary" priority="10" numLanes="1" speed="22.22" disallow="tram rail_urban rail rail_electric rail_fast ship" oneway="1"/>
    <type id="highway.tertiary_link" priority="5" numLanes="1" speed="22.22" disallow="tram rail_urban rail rail_electric rail_fast ship" oneway="1"/>
    <type id="highway.track" priority="1" numLanes="1" speed="5.56" allow="pedestrian motorcycle moped bicycle" oneway="1"/>
    <type id="highway.trunk" priority="13" numLanes="2" speed="27.78" disallow="pedestrian bicycle tram rail_urban rail rail_electric rail_fast ship" oneway="1"/>
    <type id="highway.trunk_link" priority="8" numLanes="1" speed="22.22" disallow="pedestrian bicycle tram rail_urban rail rail_electric rail_fast ship" oneway="1"/>
    <type id="highway.unclassified" priority="4" numLanes="1" speed="13.89" disallow="tram rail_urban rail rail_electric rail_fast ship" oneway="1"/>
    <type id="highway.unsurfaced" priority="1" numLanes="1" speed="8.33" disallow="tram rail_urban rail rail_electric rail_fast ship" oneway="1"/>
    <type id="railway.highspeed" priority="21" numLanes="1" speed="69.44" allow="rail_fast" oneway="1"/>
    <type id="railway.light_rail" priority="19" numLanes="1" speed="27.78" allow="rail_urban" oneway="1"/>
    <type id="railway.preserved" priority="16" numLanes="1" speed="27.78" allow="rail" oneway="1"/>
    <type id="railway.rail" priority="20" numLanes="1" speed="44.44" allow="rail" oneway="1"/>
    <type id="railway.subway" priority="18" numLanes="1" speed="27.78" allow="rail_urban" oneway="1"/>
    <type id="railway.tram" priority="17" numLanes="1" speed="13.89" allow="tram" oneway="1"/>

    <edge id=":101023386_0" function="internal">
        <lane id=":101023386_0_0" index="0" disallow="tram rail_urban rail rail_electric rail_fast ship" speed="17.88" length="0.35" shape="851.88,865.71 851.54,865.94"/>
        <lane id=":101023386_0_1" index="1" disallow="tram rail_urban rail rail_electric rail_fast ship" speed="17.88" length="0.35" shape="850.02,863.10 849.77,863.27"/>
    </edge>
    <edge id=":101023386_2" function="internal">
        <lane id=":101023386_2_0" index="0" disallow="tram rail_urban rail rail_electric rail_fast ship" speed="3.65" length="2.34" shape="850.02,863.10 848.58,863.15 847.79,862.73"/>
    </edge>
    <edge id=":101023386_6" function="internal">
        <lane id=":101023386_6_0" index="0" disallow="tram rail_urban rail rail_electric rail_fast ship" speed="3.65" length="2.34" shape="847.79,862.73 847.65,861.84 848.16,860.50"/>
    </edge>
    <edge id=":101023386_3" function="internal">
        <lane id=":101023386_3_0" index="0" disallow="tram rail_urban rail rail_electric rail_fast ship" speed="17.88" length="0.14" shape="846.23,857.94 846.30,857.89"/>
        <lane id=":101023386_3_1" index="1" disallow="tram rail_urban rail rail_electric rail_fast ship" speed="17.88" length="0.14" shape="848.00,860.60 848.16,860.50"/>
    </edge>
    <edge id=":101023386_5" function="internal">
        <lane id=":101023386_5_0" index="0" disallow="tram rail_urban rail rail_electric rail_fast ship" speed="3.65" length="2.34" shape="848.00,860.60 849.45,860.61 850.22,861.05"/>
    </edge>
    <edge id=":101023386_7" function="internal">
        <lane id=":101023386_7_0" index="0" disallow="tram rail_urban rail rail_electric rail_fast ship" speed="3.65" length="2.34" shape="850.22,861.05 850.33,861.94 849.77,863.27"/>
    </edge>
    <edge id=":101027936_0" function="internal">
        <lane id=":101027936_0_0" index="0" allow="private emergency authority army vip passenger hov taxi bus coach delivery truck trailer motorcycle evehicle" speed="6.20" length="9.05" shape="1231.00,598.99 1229.21,600.79 1228.53,602.66 1228.96,604.60 1230.50,606.62"/>
    </edge>
    <edge id=":101027936_1" function="internal">
        <lane id=":101027936_1_0" index="0" disallow="tram rail_urban rail rail_electric rail_fast ship" speed="17.88" length="13.68" shape="1231.00,598.99 1219.97,607.13"/>
        <lane id=":101027936_1_1" index="1" disallow="tram rail_urban rail rail_electric rail_fast ship" speed="17.88" length="13.68" shape="1229.07,596.44 1218.09,604.54"/>
    </edge>
    <edge id=":101027936_3" function="internal">
        <lane id=":101027936_3_0" index="0" disallow="tram rail_urban rail rail_electric rail_fast ship" speed="3.65" length="2.34" shape="1229.07,596.44 1227.63,596.52 1226.83,596.12"/>
    </edge>
    <edge id=":101027936_11" function="internal">
        <lane id=":101027936_11_0" index="0" disallow="tram rail_urban rail rail_electric rail_fast ship" speed="3.65" length="2.34" shape="1226.83,596.12 1226.67,595.24 1227.15,593.88"/>
    </edge>
    <edge id=":101027936_4" function="internal">
        <lane id=":101027936_4_0" index="0" allow="private emergency authority army vip passenger hov taxi bus coach delivery truck trailer motorcycle evehicle" speed="7.83" length="11.52" shape="1214.72,591.85 1217.05,593.32 1219.58,593.72 1222.31,593.06 1225.23,591.32"/>
    </edge>
    <edge id=":101027936_5" function="internal">
        <lane id=":101027936_5_0" index="0" allow="private emergency authority army vip passenger hov taxi bus coach delivery truck trailer motorcycle evehicle" speed="4.47" length="21.61" shape="1214.72,591.85 1230.50,606.62"/>
    </edge>
    <edge id=":101027936_6" function="internal">
        <lane id=":101027936_6_0" index="0" allow="private emergency authority army vip passenger hov taxi bus coach delivery truck trailer motorcycle evehicle" speed="7.74" length="15.35" shape="1214.72,591.85 1218.43,595.78 1220.23,599.20 1220.12,602.12 1218.09,604.54"/>
    </edge>
    <edge id=":101027936_7" function="internal">
        <lane id=":101027936_7_0" index="0" disallow="tram rail_urban rail rail_electric rail_fast ship" speed="17.88" length="13.56" shape="1214.33,599.36 1225.23,591.32"/>
        <lane id=":101027936_7_1" index="1" disallow="tram rail_urban rail rail_electric rail_fast ship" speed="17.88" length="13.56" shape="1216.21,601.95 1227.15,593.88"/>
    </edge>
    <edge id=":101027936_9" function="internal">
        <lane id=":101027936_9_0" index="0" allow="private emergency authority army vip passenger hov taxi bus coach delivery truck trailer motorcycle evehicle" speed="9.11" length="4.37" shape="1216.21,601.95 1219.16,600.75 1220.34,600.89"/>
    </edge>
    <edge id=":101027936_10" function="internal">
        <lane id=":101027936_10_0" index="0" disallow="tram rail_urban rail rail_electric rail_fast ship" speed="3.65" length="2.34" shape="1216.21,601.95 1217.65,601.89 1218.45,602.30"/>
    </edge>
    <edge id=":101027936_12" function="internal">
        <lane id=":101027936_12_0" index="0" allow="private emergency authority army vip passenger hov taxi bus coach delivery truck trailer motorcycle evehicle" speed="9.11" length="11.93" shape="1220.34,600.89 1222.52,601.13 1226.30,603.09 1230.50,606.62"/>
    </edge>
    <edge id=":101027936_13" function="internal">
        <lane id=":101027936_13_0" index="0" disallow="tram rail_urban rail rail_electric rail_fast ship" speed="3.65" length="2.34" shape="1218.45,602.30 1218.59,603.19 1218.09,604.54"/>
    </edge>
    <edge id=":1423875783_0" function="internal">
        <lane id=":1423875783_0_0" index="0" disallow="tram rail_urban rail rail_electric rail_fast ship" speed="6.65" length="9.30" shape="1462.18,442.13 1460.40,440.31 1458.46,439.48 1456.36,439.63 1454.10,440.78"/>
    </edge>
    <edge id=":1423875783_1" function="internal">
        <lane id=":1423875783_1_0" index="0" disallow="tram rail_urban rail rail_electric rail_fast ship" speed="13.89" length="20.95" shape="1462.18,442.13 1449.95,425.12"/>
    </edge>
    <edge id=":1423875783_2" function="internal">
        <lane id=":1423875783_2_0" index="0" disallow="tram rail_urban rail rail_electric rail_fast ship" speed="8.77" length="7.88" shape="1462.18,442.13 1459.57,437.63 1459.03,435.00"/>
    </edge>
    <edge id=":1423875783_3" function="internal">
        <lane id=":1423875783_3_0" index="0" disallow="tram rail_urban rail rail_electric rail_fast ship" speed="3.65" length="2.34" shape="1462.18,442.13 1462.11,440.69 1462.52,439.89"/>
    </edge>
    <edge id=":1423875783_18" function="internal">
        <lane id=":1423875783_18_0" index="0" disallow="tram rail_urban rail rail_electric rail_fast ship" speed="8.77" length="9.11" shape="1459.03,435.00 1458.74,433.62 1459.68,430.11 1462.39,427.09"/>
    </edge>
    <edge id=":1423875783_19" function="internal">
        <lane id=":1423875783_19_0" index="0" disallow="tram rail_urban rail rail_electric rail_fast ship" speed="3.65" length="2.34" shape="1462.52,439.89 1463.40,439.74 1464.76,440.23"/>
    </edge>
    <edge id=":1423875783_4" function="internal">
        <lane id=":1423875783_4_0" index="0" disallow="tram rail_urban rail rail_electric rail_fast ship" speed="6.55" length="9.02" shape="1466.00,432.38 1464.25,434.17 1463.45,436.07 1463.62,438.09 1464.76,440.23"/>
    </edge>
    <edge id=":1423875783_5" function="internal">
        <lane id=":1423875783_5_0" index="0" disallow="tram rail_urban rail rail_electric rail_fast ship" speed="19.00" length="14.59" shape="1466.00,432.38 1454.10,440.78"/>
        <lane id=":1423875783_5_1" index="1" disallow="tram rail_urban rail rail_electric rail_fast ship" speed="19.00" length="14.59" shape="1464.20,429.74 1452.26,438.16"/>
    </edge>
    <edge id=":1423875783_7" function="internal">
        <lane id=":1423875783_7_0" index="0" disallow="tram rail_urban rail rail_electric rail_fast ship" speed="8.60" length="5.59" shape="1464.20,429.74 1460.63,431.51 1459.02,431.43"/>
    </edge>
    <edge id=":1423875783_8" function="internal">
        <lane id=":1423875783_8_0" index="0" disallow="tram rail_urban rail rail_electric rail_fast ship" speed="3.65" length="2.34" shape="1464.20,429.74 1462.75,429.75 1461.97,429.32"/>
    </edge>
    <edge id=":1423875783_20" function="internal">
        <lane id=":1423875783_20_0" index="0" disallow="tram rail_urban rail rail_electric rail_fast ship" speed="8.60" length="11.52" shape="1459.02,431.43 1457.06,431.33 1453.50,429.20 1449.95,425.12"/>
    </edge>
    <edge id=":1423875783_21" function="internal">
        <lane id=":1423875783_21_0" index="0" disallow="tram rail_urban rail rail_electric rail_fast ship" speed="3.65" length="2.34" shape="1461.97,429.32 1461.85,428.43 1462.39,427.09"/>
    </edge>
    <edge id=":1423875783_9" function="internal">
        <lane id=":1423875783_9_0" index="0" disallow="tram rail_urban rail rail_electric rail_fast ship" speed="6.51" length="9.33" shape="1452.57,423.28 1454.32,425.14 1456.24,425.95 1458.33,425.72 1460.58,424.44"/>
    </edge>
    <edge id=":1423875783_10" function="internal">
        <lane id=":1423875783_10_0" index="0" disallow="tram rail_urban rail rail_electric rail_fast ship" speed="13.89" length="20.88" shape="1452.57,423.28 1464.76,440.23"/>
    </edge>
    <edge id=":1423875783_11" function="internal">
        <lane id=":1423875783_11_0" index="0" disallow="tram rail_urban rail rail_electric rail_fast ship" speed="8.67" length="7.69" shape="1452.57,423.28 1455.14,427.89 1455.61,430.25"/>
    </edge>
    <edge id=":1423875783_12" function="internal">
        <lane id=":1423875783_12_0" index="0" disallow="tram rail_urban rail rail_electric rail_fast ship" speed="3.65" length="2.34" shape="1452.57,423.28 1452.60,424.72 1452.18,425.51"/>
    </edge>
    <edge id=":1423875783_22" function="internal">
        <lane id=":1423875783_22_0" index="0" disallow="tram rail_urban rail rail_electric rail_fast ship" speed="8.67" length="9.17" shape="1455.61,430.25 1455.94,431.91 1454.98,435.33 1452.26,438.16"/>
    </edge>
    <edge id=":1423875783_23" function="internal">
        <lane id=":1423875783_23_0" index="0" disallow="tram rail_urban rail rail_electric rail_fast ship" speed="3.65" length="2.34" shape="1452.18,425.51 1451.29,425.64 1449.95,425.12"/>
    </edge>
    <edge id=":1423875783_13" function="internal">
        <lane id=":1423875783_13_0" index="0" disallow="tram rail_urban rail rail_electric rail_fast ship" speed="6.51" length="9.03" shape="1448.58,432.92 1450.39,431.22 1451.22,429.36 1451.07,427.33 1449.95,425.12"/>
    </edge>
    <edge id=":1423875783_14" function="internal">
        <lane id=":1423875783_14_0" index="0" disallow="tram rail_urban rail rail_electric rail_fast ship" speed="19.00" length="14.67" shape="1448.58,432.92 1460.58,424.44"/>
        <lane id=":1423875783_14_1" index="1" disallow="tram rail_urban rail rail_electric rail_fast ship" speed="19.00" length="14.67" shape="1450.42,435.54 1462.39,427.09"/>
    </edge>
    <edge id=":1423875783_16" function="internal">
        <lane id=":1423875783_16_0" index="0" disallow="tram rail_urban rail rail_electric rail_fast ship" speed="8.78" length="5.25" shape="1450.42,435.54 1454.01,433.94 1455.33,434.04"/>
    </edge>
    <edge id=":1423875783_17" function="internal">
        <lane id=":1423875783_17_0" index="0" disallow="tram rail_urban rail rail_electric rail_fast ship" speed="3.65" length="2.34" shape="1450.42,435.54 1451.86,435.50 1452.65,435.93"/>
    </edge>
    <edge id=":1423875783_24" function="internal">
        <lane id=":1423875783_24_0" index="0" disallow="tram rail_urban rail rail_electric rail_fast ship" speed="8.78" length="11.75" shape="1455.33,434.04 1457.60,434.19 1461.18,436.29 1464.76,440.23"/>
    </edge>
    <edge id=":1423875783_25" function="internal">
        <lane id=":1423875783_25_0" index="0" disallow="tram rail_urban rail rail_electric rail_fast ship" speed="3.65" length="2.34" shape="1452.65,435.93 1452.78,436.81 1452.26,438.16"/>
    </edge>
    <edge id=":1715694380_0" function="internal">
        <lane id=":1715694380_0_0" index="0" disallow="tram rail_urban rail rail_electric rail_fast ship" speed="17.88" length="0.25" shape="1001.35,759.14 1001.16,759.27"/>
        <lane id=":1715694380_0_1" index="1" disallow="tram rail_urban rail rail_electric rail_fast ship" speed="17.88" length="0.25" shape="999.52,756.51 999.30,756.67"/>
    </edge>
    <edge id=":1715694380_2" function="internal">
        <lane id=":1715694380_2_0" index="0" disallow="tram rail_urban rail rail_electric rail_fast ship" speed="17.88" length="0.33" shape="995.58,751.46 995.87,751.25"/>
        <lane id=":1715694380_2_1" index="1" disallow="tram rail_urban rail rail_electric rail_fast ship" speed="17.88" length="0.33" shape="997.44,754.06 997.70,753.88"/>
    </edge>
    <edge id=":1715694384_0" function="internal">
        <lane id=":1715694384_0_0" index="0" disallow="tram rail_urban rail rail_electric rail_fast ship" speed="17.88" length="0.21" shape="818.72,887.55 818.57,887.64"/>
        <lane id=":1715694384_0_1" index="1" disallow="tram rail_urban rail rail_electric rail_fast ship" speed="17.88" length="0.21" shape="816.97,884.87 816.77,885.00"/>
    </edge>
    <edge id=":1715694384_2" function="internal">
        <lane id=":1715694384_2_0" index="0" disallow="tram rail_urban rail rail_electric rail_fast ship" speed="3.65" length="2.34" shape="816.97,884.87 815.53,884.85 814.75,884.40"/>
    </edge>
    <edge id=":1715694384_6" function="internal">
        <lane id=":1715694384_6_0" index="0" disallow="tram rail_urban rail rail_electric rail_fast ship" speed="3.65" length="2.34" shape="814.75,884.40 814.65,883.51 815.22,882.18"/>
    </edge>
    <edge id=":1715694384_3" function="internal">
        <lane id=":1715694384_3_0" index="0" disallow="tram rail_urban rail rail_electric rail_fast ship" speed="17.88" length="0.35" shape="813.16,879.71 813.48,879.50"/>
        <lane id=":1715694384_3_1" index="1" disallow="tram rail_urban rail rail_electric rail_fast ship" speed="17.88" length="0.35" shape="814.96,882.36 815.22,882.18"/>
    </edge>
    <edge id=":1715694384_5" function="internal">
        <lane id=":1715694384_5_0" index="0" disallow="tram rail_urban rail rail_electric rail_fast ship" speed="3.65" length="2.34" shape="814.96,882.36 816.41,882.34 817.19,882.78"/>
    </edge>
    <edge id=":1715694384_7" function="internal">
        <lane id=":1715694384_7_0" index="0" disallow="tram rail_urban rail rail_electric rail_fast ship" speed="3.65" length="2.34" shape="817.19,882.78 817.31,883.66 816.77,885.00"/>
    </edge>
    <edge id=":1715694385_0" function="internal">
        <lane id=":1715694385_0_0" index="0" disallow="tram rail_urban rail rail_electric rail_fast ship" speed="17.88" length="0.10" shape="756.39,932.48 756.39,932.48"/>
        <lane id=":1715694385_0_1" index="1" disallow="tram rail_urban rail rail_electric rail_fast ship" speed="17.88" length="0.10" shape="754.34,930.03 754.34,930.03"/>
    </edge>
    <edge id=":1715694385_2" function="internal">
        <lane id=":1715694385_2_0" index="0" disallow="tram rail_urban rail rail_electric rail_fast ship" speed="17.88" length="0.10" shape="750.23,925.12 750.23,925.12"/>
        <lane id=":1715694385_2_1" index="1" disallow="tram rail_urban rail rail_electric rail_fast ship" speed="17.88" length="0.10" shape="752.28,927.57 752.28,927.57"/>
    </edge>
    <edge id=":2003213676_0" function="internal">
        <lane id=":2003213676_0_0" index="0" disallow="tram rail_urban rail rail_electric rail_fast ship" speed="3.65" length="4.67" shape="659.87,1062.76 658.67,1063.57 657.78,1063.63 657.19,1062.95 656.91,1061.54"/>
    </edge>
    <edge id=":2407164362_0" function="internal">
        <lane id=":2407164362_0_0" index="0" allow="private emergency authority army vip passenger hov taxi bus coach delivery truck trailer motorcycle evehicle" speed="4.47" length="10.73" shape="1164.62,568.04 1156.59,560.93"/>
    </edge>
    <edge id=":2407164362_1" function="internal">
        <lane id=":2407164362_1_0" index="0" allow="private emergency authority army vip passenger hov taxi bus coach delivery truck trailer motorcycle evehicle" speed="5.01" length="8.66" shape="1164.62,568.04 1163.16,566.27 1162.70,564.43 1163.24,562.53 1164.78,560.56"/>
    </edge>
    <edge id=":2407164365_0" function="internal">
        <lane id=":2407164365_0_0" index="0" allow="private emergency authority army vip passenger hov taxi bus coach delivery truck trailer motorcycle evehicle" speed="8.45" length="12.61" shape="1218.29,615.60 1215.82,614.22 1213.05,613.93 1210.00,614.72 1206.65,616.60"/>
    </edge>
    <edge id=":2407164365_1" function="internal">
        <lane id=":2407164365_1_0" index="0" allow="private emergency authority army vip passenger hov taxi bus coach delivery truck trailer motorcycle evehicle" speed="4.47" length="21.97" shape="1218.29,615.60 1201.65,601.26"/>
    </edge>
    <edge id=":2407164365_2" function="internal">
        <lane id=":2407164365_2_0" index="0" allow="private emergency authority army vip passenger hov taxi bus coach delivery truck trailer motorcycle evehicle" speed="7.68" length="15.51" shape="1218.29,615.60 1214.41,611.78 1212.52,608.41 1212.64,605.48 1214.77,602.99"/>
    </edge>
    <edge id=":2407164365_3" function="internal">
        <lane id=":2407164365_3_0" index="0" disallow="tram rail_urban rail rail_electric rail_fast ship" speed="17.88" length="14.53" shape="1218.53,608.18 1206.65,616.60"/>
        <lane id=":2407164365_3_1" index="1" disallow="tram rail_urban rail rail_electric rail_fast ship" speed="17.88" length="14.53" shape="1216.65,605.58 1204.83,613.97"/>
    </edge>
    <edge id=":2407164365_5" function="internal">
        <lane id=":2407164365_5_0" index="0" allow="private emergency authority army vip passenger hov taxi bus coach delivery truck trailer motorcycle evehicle" speed="9.42" length="4.64" shape="1216.65,605.58 1213.60,606.85 1212.26,606.73"/>
    </edge>
    <edge id=":2407164365_6" function="internal">
        <lane id=":2407164365_6_0" index="0" disallow="tram rail_urban rail rail_electric rail_fast ship" speed="3.65" length="2.34" shape="1216.65,605.58 1215.21,605.64 1214.41,605.23"/>
    </edge>
    <edge id=":2407164365_11" function="internal">
        <lane id=":2407164365_11_0" index="0" allow="private emergency authority army vip passenger hov taxi bus coach delivery truck trailer motorcycle evehicle" speed="9.42" length="12.21" shape="1212.26,606.73 1210.08,606.55 1206.09,604.68 1201.65,601.26"/>
    </edge>
    <edge id=":2407164365_12" function="internal">
        <lane id=":2407164365_12_0" index="0" disallow="tram rail_urban rail rail_electric rail_fast ship" speed="3.65" length="2.34" shape="1214.41,605.23 1214.27,604.35 1214.77,602.99"/>
    </edge>
    <edge id=":2407164365_7" function="internal">
        <lane id=":2407164365_7_0" index="0" allow="private emergency authority army vip passenger hov taxi bus coach delivery truck trailer motorcycle evehicle" speed="6.06" length="9.07" shape="1201.18,608.72 1203.06,606.96 1203.77,605.14 1203.30,603.23 1201.65,601.26"/>
    </edge>
    <edge id=":2407164365_8" function="internal">
        <lane id=":2407164365_8_0" index="0" disallow="tram rail_urban rail rail_electric rail_fast ship" speed="17.88" length="14.40" shape="1201.18,608.72 1212.89,600.40"/>
        <lane id=":2407164365_8_1" index="1" disallow="tram rail_urban rail rail_electric rail_fast ship" speed="17.88" length="14.40" shape="1203.00,611.35 1214.77,602.99"/>
    </edge>
    <edge id=":2407164365_10" function="internal">
        <lane id=":2407164365_10_0" index="0" disallow="tram rail_urban rail rail_electric rail_fast ship" speed="3.65" length="2.34" shape="1203.00,611.35 1204.44,611.32 1205.23,611.75"/>
    </edge>
    <edge id=":2407164365_13" function="internal">
        <lane id=":2407164365_13_0" index="0" disallow="tram rail_urban rail rail_electric rail_fast ship" speed="3.65" length="2.34" shape="1205.23,611.75 1205.36,612.63 1204.83,613.97"/>
    </edge>
    <edge id=":3655880346_0" function="internal">
        <lane id=":3655880346_0_0" index="0" disallow="tram rail_urban rail rail_electric rail_fast ship" speed="10.95" length="13.56" shape="843.37,880.59 839.11,879.38 835.50,878.89 832.53,879.12 830.21,880.06"/>
    </edge>
    <edge id=":3655880346_1" function="internal">
        <lane id=":3655880346_1_0" index="0" disallow="tram rail_urban rail rail_electric rail_fast ship" speed="8.14" length="22.11" shape="843.37,880.59 836.86,877.51 834.14,874.03 835.20,870.16 840.05,865.88"/>
    </edge>
    <edge id=":3655880346_2" function="internal">
        <lane id=":3655880346_2_0" index="0" disallow="tram rail_urban rail rail_electric rail_fast ship" speed="3.65" length="2.53" shape="843.37,880.59 842.50,879.45 842.38,878.56 842.52,878.42"/>
    </edge>
    <edge id=":3655880346_10" function="internal">
        <lane id=":3655880346_10_0" index="0" disallow="tram rail_urban rail rail_electric rail_fast ship" speed="3.65" length="2.14" shape="842.52,878.42 843.01,877.93 844.41,877.57"/>
    </edge>
    <edge id=":3655880346_3" function="internal">
        <lane id=":3655880346_3_0" index="0" disallow="tram rail_urban rail rail_electric rail_fast ship" speed="5.55" length="9.42" shape="843.59,871.21 841.38,873.11 840.78,874.80 841.79,876.29 844.41,877.57"/>
    </edge>
    <edge id=":3655880346_4" function="internal">
        <lane id=":3655880346_4_0" index="0" disallow="tram rail_urban rail rail_electric rail_fast ship" speed="17.88" length="16.04" shape="843.59,871.21 830.21,880.06"/>
        <lane id=":3655880346_4_1" index="1" disallow="tram rail_urban rail rail_electric rail_fast ship" speed="17.88" length="16.04" shape="841.82,868.55 828.46,877.38"/>
    </edge>
    <edge id=":3655880346_6" function="internal">
        <lane id=":3655880346_6_0" index="0" disallow="tram rail_urban rail rail_electric rail_fast ship" speed="17.88" length="15.98" shape="824.97,872.02 838.29,863.21"/>
        <lane id=":3655880346_6_1" index="1" disallow="tram rail_urban rail rail_electric rail_fast ship" speed="17.88" length="15.98" shape="826.71,874.70 840.05,865.88"/>
    </edge>
    <edge id=":3655880346_8" function="internal">
        <lane id=":3655880346_8_0" index="0" disallow="tram rail_urban rail rail_electric rail_fast ship" speed="12.63" length="3.75" shape="826.71,874.70 829.03,874.09 830.38,874.19"/>
    </edge>
    <edge id=":3655880346_9" function="internal">
        <lane id=":3655880346_9_0" index="0" disallow="tram rail_urban rail rail_electric rail_fast ship" speed="3.65" length="2.34" shape="826.71,874.70 828.15,874.72 828.93,875.17"/>
    </edge>
    <edge id=":3655880346_11" function="internal">
        <lane id=":3655880346_11_0" index="0" disallow="tram rail_urban rail rail_electric rail_fast ship" speed="12.63" length="14.48" shape="830.38,874.19 832.75,874.37 837.87,875.53 844.41,877.57"/>
    </edge>
    <edge id=":3655880346_12" function="internal">
        <lane id=":3655880346_12_0" index="0" disallow="tram rail_urban rail rail_electric rail_fast ship" speed="3.65" length="2.34" shape="828.93,875.17 829.03,876.06 828.46,877.38"/>
    </edge>
    <edge id=":3657103434_0" function="internal">
        <lane id=":3657103434_0_0" index="0" disallow="tram rail_urban rail rail_electric rail_fast ship" speed="3.65" length="4.67" shape="1322.71,325.81 1321.96,324.57 1321.94,323.68 1322.65,323.12 1324.07,322.91"/>
    </edge>
    <edge id=":3657103558_0" function="internal">
        <lane id=":3657103558_0_0" index="0" allow="private emergency authority army vip passenger hov taxi bus coach delivery truck trailer motorcycle evehicle" speed="4.47" length="5.03" shape="1156.07,560.48 1152.31,557.15"/>
    </edge>
    <edge id=":3657103577_0" function="internal">