<?xml version="1.0" encoding="UTF-8"?>

<!-- generated on 2022-12-23 11:45:19 by Eclipse SUMO netedit Version 1.15.0
<configuration xmlns:xsi="http://www.w3.org/2001/XMLSchema-instance" xsi:noNamespaceSchemaLocation="http://sumo.dlr.de/xsd/netconvertConfiguration.xsd">

    <input>
        <sumo-net-file value="maps/CurvyRoad.net.xml"/>
    </input>

    <output>
        <output-file value="maps/CurvyRoad.net.xml"/>
    </output>

    <processing>
        <geometry.min-radius.fix.railways value="false"/>
        <geometry.max-grade.fix value="false"/>
        <offset.disable-normalization value="true"/>
        <lefthand value="0"/>
    </processing>

    <junctions>
        <no-internal-links value="false"/>
        <no-turnarounds value="true"/>
        <junctions.corner-detail value="5"/>
        <junctions.limit-turn-speed value="5.50"/>
        <rectangular-lane-cut value="0"/>
    </junctions>

    <pedestrian>
        <walkingareas value="0"/>
    </pedestrian>

</configuration>
-->

<net version="1.9" junctionCornerDetail="5" limitTurnSpeed="5.50" xmlns:xsi="http://www.w3.org/2001/XMLSchema-instance" xsi:noNamespaceSchemaLocation="http://sumo.dlr.de/xsd/net_file.xsd">

    <location netOffset="-494225.46,-3228441.43" convBoundary="658.39,62.57,1644.34,1062.15" origBoundary="-81.059398,29.183689,-81.042348,29.195629" projParameter="+proj=utm +zone=17 +ellps=WGS84 +datum=WGS84 +units=m +no_defs"/>

    <type id="highway.bridleway" priority="1" numLanes="1" speed="2.78" allow="pedestrian" oneway="1" width="2.00"/>
    <type id="highway.bus_guideway" priority="1" numLanes="1" speed="27.78" allow="bus" oneway="1"/>
    <type id="highway.cycleway" priority="1" numLanes="1" speed="8.33" allow="bicycle" oneway="1" width="1.00"/>
    <type id="highway.footway" priority="1" numLanes="1" speed="2.78" allow="pedestrian" oneway="1" width="2.00"/>
    <type id="highway.ford" priority="1" numLanes="1" speed="2.78" allow="army" oneway="1"/>
    <type id="highway.living_street" priority="2" numLanes="1" speed="2.78" disallow="tram rail_urban rail rail_electric rail_fast ship" oneway="1"/>
    <type id="highway.motorway" priority="14" numLanes="2" speed="39.44" allow="private emergency authority army vip passenger hov taxi bus coach delivery truck trailer motorcycle evehicle custom1 custom2" oneway="1"/>
    <type id="highway.motorway_link" priority="9" numLanes="1" speed="22.22" allow="private emergency authority army vip passenger hov taxi bus coach delivery truck trailer motorcycle evehicle custom1 custom2" oneway="1"/>
    <type id="highway.path" priority="1" numLanes="1" speed="2.78" allow="pedestrian bicycle" oneway="1" width="2.00"/>
    <type id="highway.pedestrian" priority="1" numLanes="1" speed="2.78" allow="pedestrian" oneway="1" width="2.00"/>
    <type id="highway.primary" priority="12" numLanes="2" speed="27.78" disallow="tram rail_urban rail rail_electric rail_fast ship" oneway="1"/>
    <type id="highway.primary_link" priority="7" numLanes="1" speed="22.22" disallow="tram rail_urban rail rail_electric rail_fast ship" oneway="1"/>
    <type id="highway.raceway" priority="15" numLanes="2" speed="83.33" allow="vip" oneway="1"/>
    <type id="highway.residential" priority="3" numLanes="1" speed="13.89" disallow="tram rail_urban rail rail_electric rail_fast ship" oneway="1"/>
    <type id="highway.secondary" priority="11" numLanes="1" speed="27.78" disallow="tram rail_urban rail rail_electric rail_fast ship" oneway="1"/>
    <type id="highway.secondary_link" priority="6" numLanes="1" speed="22.22" disallow="tram rail_urban rail rail_electric rail_fast ship" oneway="1"/>
    <type id="highway.service" priority="1" numLanes="1" speed="5.56" allow="private emergency authority army vip passenger hov taxi bus coach delivery truck trailer motorcycle evehicle" oneway="1"/>
    <type id="highway.stairs" priority="1" numLanes="1" speed="1.39" allow="pedestrian" oneway="1" width="2.00"/>
    <type id="highway.step" priority="1" numLanes="1" speed="1.39" allow="pedestrian" oneway="1" width="2.00"/>
    <type id="highway.steps" priority="1" numLanes="1" speed="1.39" allow="pedestrian" oneway="1" width="2.00"/>
    <type id="highway.tertiary" priority="10" numLanes="1" speed="22.22" disallow="tram rail_urban rail rail_electric rail_fast ship" oneway="1"/>
    <type id="highway.tertiary_link" priority="5" numLanes="1" speed="22.22" disallow="tram rail_urban rail rail_electric rail_fast ship" oneway="1"/>
    <type id="highway.track" priority="1" numLanes="1" speed="5.56" allow="pedestrian motorcycle moped bicycle" oneway="1"/>
    <type id="highway.trunk" priority="13" numLanes="2" speed="27.78" disallow="pedestrian bicycle tram rail_urban rail rail_electric rail_fast ship" oneway="1"/>
    <type id="highway.trunk_link" priority="8" numLanes="1" speed="22.22" disallow="pedestrian bicycle tram rail_urban rail rail_electric rail_fast ship" oneway="1"/>
    <type id="highway.unclassified" priority="4" numLanes="1" speed="13.89" disallow="tram rail_urban rail rail_electric rail_fast ship" oneway="1"/>
    <type id="highway.unsurfaced" priority="1" numLanes="1" speed="8.33" disallow="tram rail_urban rail rail_electric rail_fast ship" oneway="1"/>
    <type id="railway.highspeed" priority="21" numLanes="1" speed="69.44" allow="rail_fast" oneway="1"/>
    <type id="railway.light_rail" priority="19" numLanes="1" speed="27.78" allow="rail_urban" oneway="1"/>
    <type id="railway.preserved" priority="16" numLanes="1" speed="27.78" allow="rail" oneway="1"/>
    <type id="railway.rail" priority="20" numLanes="1" speed="44.44" allow="rail" oneway="1"/>
    <type id="railway.subway" priority="18" numLanes="1" speed="27.78" allow="rail_urban" oneway="1"/>
    <type id="railway.tram" priority="17" numLanes="1" speed="13.89" allow="tram" oneway="1"/>

    <edge id=":101023386_0" function="internal">
        <lane id=":101023386_0_0" index="0" disallow="tram rail_urban rail rail_electric rail_fast ship" speed="17.88" length="0.35" shape="851.88,865.71 851.54,865.94"/>
        <lane id=":101023386_0_1" index="1" disallow="tram rail_urban rail rail_electric rail_fast ship" speed="17.88" length="0.35" shape="850.02,863.10 849.77,863.27"/>
    </edge>
    <edge id=":101023386_2" function="internal">
        <lane id=":101023386_2_0" index="0" disallow="tram rail_urban rail rail_electric rail_fast ship" speed="3.65" length="2.34" shape="850.02,863.10 848.58,863.15 847.79,862.73"/>
    </edge>
    <edge id=":101023386_6" function="internal">
        <lane id=":101023386_6_0" index="0" disallow="tram rail_urban rail rail_electric rail_fast ship" speed="3.65" length="2.34" shape="847.79,862.73 847.65,861.84 848.16,860.50"/>
    </edge>
    <edge id=":101023386_3" function="internal">
        <lane id=":101023386_3_0" index="0" disallow="tram rail_urban rail rail_electric rail_fast ship" speed="17.88" length="0.14" shape="846.23,857.94 846.30,857.89"/>
        <lane id=":101023386_3_1" index="1" disallow="tram rail_urban rail rail_electric rail_fast ship" speed="17.88" length="0.14" shape="848.00,860.60 848.16,860.50"/>
    </edge>
    <edge id=":101023386_5" function="internal">
        <lane id=":101023386_5_0" index="0" disallow="tram rail_urban rail rail_electric rail_fast ship" speed="3.65" length="2.34" shape="848.00,860.60 849.45,860.61 850.22,861.05"/>
    </edge>
    <edge id=":101023386_7" function="internal">
        <lane id=":101023386_7_0" index="0" disallow="tram rail_urban rail rail_electric rail_fast ship" speed="3.65" length="2.34" shape="850.22,861.05 850.33,861.94 849.77,863.27"/>
    </edge>
    <edge id=":101023386_w0" function="walkingarea">
        <lane id=":101023386_w0_0" index="0" allow="pedestrian" speed="1.00" length="6.48" width="3.20" shape="852.80,867.01 850.95,864.40 849.09,861.80 847.23,859.19 845.37,856.59 847.12,859.27 848.89,861.94 850.66,864.60 852.43,867.27"/>
    </edge>
    <edge id=":101027936_0" function="internal">
        <lane id=":101027936_0_0" index="0" allow="private emergency authority army vip passenger hov taxi bus coach delivery truck trailer motorcycle evehicle" speed="6.17" length="9.07" shape="1231.13,599.07 1229.29,600.84 1228.58,602.70 1228.99,604.64 1230.54,606.66"/>
    </edge>
    <edge id=":101027936_1" function="internal">
        <lane id=":101027936_1_0" index="0" disallow="pedestrian tram rail_urban rail rail_electric rail_fast ship" speed="17.88" length="13.82" shape="1231.13,599.07 1219.95,607.15"/>
        <lane id=":101027936_1_1" index="1" disallow="pedestrian tram rail_urban rail rail_electric rail_fast ship" speed="17.88" length="13.82" shape="1229.29,596.45 1218.07,604.56"/>
    </edge>
    <edge id=":101027936_3" function="internal">
        <lane id=":101027936_3_0" index="0" disallow="pedestrian tram rail_urban rail rail_electric rail_fast ship" speed="3.63" length="1.31" shape="1229.29,596.45 1227.98,596.49"/>
    </edge>
    <edge id=":101027936_11" function="internal">
        <lane id=":101027936_11_0" index="0" disallow="pedestrian tram rail_urban rail rail_electric rail_fast ship" speed="3.63" length="3.26" shape="1227.98,596.49 1227.88,596.49 1227.11,596.07 1226.98,595.21 1227.49,593.90"/>
    </edge>
    <edge id=":101027936_4" function="internal">
        <lane id=":101027936_4_0" index="0" allow="private emergency authority army vip passenger hov taxi bus coach delivery truck trailer motorcycle evehicle" speed="8.43" length="13.07" shape="1213.68,590.99 1216.48,592.83 1219.41,593.49 1222.47,592.97 1225.65,591.28"/>
    </edge>
    <edge id=":101027936_5" function="internal">
        <lane id=":101027936_5_0" index="0" allow="private emergency authority army vip passenger hov taxi bus coach delivery truck trailer motorcycle evehicle" speed="4.47" length="23.02" shape="1213.68,590.99 1230.54,606.66"/>
    </edge>
    <edge id=":101027936_6" function="internal">
        <lane id=":101027936_6_0" index="0" allow="private emergency authority army vip passenger hov taxi bus coach delivery truck trailer motorcycle evehicle" speed="7.99" length="16.52" shape="1213.68,590.99 1217.85,595.29 1219.97,598.99 1220.04,602.08 1218.07,604.56"/>
    </edge>
    <edge id=":101027936_7" function="internal">
        <lane id=":101027936_7_0" index="0" disallow="pedestrian tram rail_urban rail rail_electric rail_fast ship" speed="17.88" length="13.91" shape="1214.31,599.37 1225.65,591.28"/>
        <lane id=":101027936_7_1" index="1" disallow="pedestrian tram rail_urban rail rail_electric rail_fast ship" speed="17.88" length="13.91" shape="1216.19,601.96 1227.49,593.90"/>
    </edge>
    <edge id=":101027936_9" function="internal">
        <lane id=":101027936_9_0" index="0" allow="private emergency authority army vip passenger hov taxi bus coach delivery truck trailer motorcycle evehicle" speed="9.13" length="2.99" shape="1216.19,601.96 1218.96,600.84"/>
    </edge>
    <edge id=":101027936_10" function="internal">
        <lane id=":101027936_10_0" index="0" disallow="tram rail_urban rail rail_electric rail_fast ship" speed="3.65" length="1.44" shape="1216.19,601.96 1217.63,601.91"/>
    </edge>
    <edge id=":101027936_12" function="internal">
        <lane id=":101027936_12_0" index="0" allow="private emergency authority army vip passenger hov taxi bus coach delivery truck trailer motorcycle evehicle" speed="9.13" length="13.38" shape="1218.96,600.84 1219.15,600.77 1222.52,601.15 1226.32,603.11 1230.54,606.66"/>
    </edge>
    <edge id=":101027936_13" function="internal">
        <lane id=":101027936_13_0" index="0" disallow="tram rail_urban rail rail_electric rail_fast ship" speed="3.65" length="3.23" shape="1217.63,601.91 1218.42,602.32 1218.57,603.20 1218.07,604.56"/>
    </edge>
    <edge id=":101027936_w1" function="walkingarea">
        <lane id=":101027936_w1_0" index="0" allow="pedestrian" speed="1.00" length="9.60" width="3.20" shape="1213.37,598.08 1215.25,600.67 1217.13,603.26 1219.01,605.85 1220.89,608.44"/>
    </edge>
    <edge id=":1423875783_0" function="internal">
        <lane id=":1423875783_0_0" index="0" disallow="pedestrian tram rail_urban rail rail_electric rail_fast ship" speed="7.12" length="10.81" shape="1463.25,443.59 1461.00,441.13 1458.72,439.84 1456.42,439.72 1454.10,440.78"/>
    </edge>
    <edge id=":1423875783_1" function="internal">
        <lane id=":1423875783_1_0" index="0" disallow="tram rail_urban rail rail_electric rail_fast ship" speed="13.89" length="22.77" shape="1463.25,443.59 1449.95,425.12"/>
    </edge>
    <edge id=":1423875783_2" function="internal">
        <lane id=":1423875783_2_0" index="0" disallow="tram rail_urban rail rail_electric rail_fast ship" speed="9.14" length="6.44" shape="1463.25,443.59 1460.18,438.45 1460.07,438.02"/>
    </edge>
    <edge id=":1423875783_14" function="internal">
        <lane id=":1423875783_14_0" index="0" disallow="tram rail_urban rail rail_electric rail_fast ship" speed="9.14" length="12.11" shape="1460.07,438.02 1459.01,433.98 1459.74,430.20 1462.39,427.09"/>
    </edge>
    <edge id=":1423875783_3" function="internal">
        <lane id=":1423875783_3_0" index="0" disallow="tram rail_urban rail rail_electric rail_fast ship" speed="7.03" length="10.52" shape="1466.00,432.38 1464.31,434.26 1463.72,436.44 1464.23,438.92 1465.83,441.70"/>
    </edge>
    <edge id=":1423875783_4" function="internal">
        <lane id=":1423875783_4_0" index="0" disallow="pedestrian tram rail_urban rail rail_electric rail_fast ship" speed="19.00" length="14.59" shape="1466.00,432.38 1454.10,440.78"/>
        <lane id=":1423875783_4_1" index="1" disallow="pedestrian tram rail_urban rail rail_electric rail_fast ship" speed="19.00" length="14.59" shape="1464.20,429.74 1452.26,438.16"/>
    </edge>
    <edge id=":1423875783_6" function="internal">
        <lane id=":1423875783_6_0" index="0" disallow="tram rail_urban rail rail_electric rail_fast ship" speed="8.60" length="3.98" shape="1464.20,429.74 1460.63,431.51"/>
    </edge>
    <edge id=":1423875783_15" function="internal">
        <lane id=":1423875783_15_0" index="0" disallow="tram rail_urban rail rail_electric rail_fast ship" speed="8.60" length="13.13" shape="1460.63,431.51 1457.06,431.33 1453.50,429.20 1449.95,425.12"/>
    </edge>
    <edge id=":1423875783_7" function="internal">
        <lane id=":1423875783_7_0" index="0" disallow="tram rail_urban rail rail_electric rail_fast ship" speed="6.51" length="9.33" shape="1452.57,423.28 1454.32,425.14 1456.24,425.95 1458.33,425.72 1460.58,424.44"/>
    </edge>
    <edge id=":1423875783_8" function="internal">
        <lane id=":1423875783_8_0" index="0" disallow="tram rail_urban rail rail_electric rail_fast ship" speed="13.89" length="22.70" shape="1452.57,423.28 1465.83,441.70"/>
    </edge>
    <edge id=":1423875783_9" function="internal">
        <lane id=":1423875783_9_0" index="0" disallow="pedestrian tram rail_urban rail rail_electric rail_fast ship" speed="8.67" length="5.41" shape="1452.57,423.28 1455.14,427.89 1455.16,428.02"/>
    </edge>
    <edge id=":1423875783_16" function="internal">
        <lane id=":1423875783_16_0" index="0" disallow="pedestrian tram rail_urban rail rail_electric rail_fast ship" speed="8.67" length="11.45" shape="1455.16,428.02 1455.94,431.91 1454.98,435.33 1452.26,438.16"/>
    </edge>
    <edge id=":1423875783_10" function="internal">
        <lane id=":1423875783_10_0" index="0" disallow="pedestrian tram rail_urban rail rail_electric rail_fast ship" speed="6.51" length="9.03" shape="1448.58,432.92 1450.39,431.22 1451.22,429.36 1451.07,427.33 1449.95,425.12"/>
    </edge>
    <edge id=":1423875783_11" function="internal">
        <lane id=":1423875783_11_0" index="0" disallow="pedestrian tram rail_urban rail rail_electric rail_fast ship" speed="19.00" length="14.67" shape="1448.58,432.92 1460.58,424.44"/>
        <lane id=":1423875783_11_1" index="1" disallow="pedestrian tram rail_urban rail rail_electric rail_fast ship" speed="19.00" length="14.67" shape="1450.42,435.54 1462.39,427.09"/>
    </edge>
    <edge id=":1423875783_13" function="internal">
        <lane id=":1423875783_13_0" index="0" disallow="pedestrian tram rail_urban rail rail_electric rail_fast ship" speed="9.15" length="3.25" shape="1450.42,435.54 1453.43,434.30"/>
    </edge>
    <edge id=":1423875783_17" function="internal">
        <lane id=":1423875783_17_0" index="0" disallow="pedestrian tram rail_urban rail rail_electric rail_fast ship" speed="9.15" length="15.32" shape="1453.43,434.30 1454.08,434.03 1457.86,434.56 1461.78,437.11 1465.83,441.70"/>
    </edge>
    <edge id=":1423875783_w0" function="walkingarea">
        <lane id=":1423875783_w0_0" index="0" allow="pedestrian" speed="1.00" length="14.70" width="3.20" shape="1455.01,442.09 1456.16,443.73 1461.97,444.54 1464.54,442.64 1467.12,440.75 1466.98,433.65 1465.03,431.12 1465.17,431.01 1463.22,428.47 1463.37,428.36 1461.42,425.82 1461.56,425.71 1459.61,423.18 1453.88,422.36 1451.26,424.20 1448.64,426.04"/>
    </edge>
    <edge id=":1715694380_0" function="internal">
        <lane id=":1715694380_0_0" index="0" disallow="tram rail_urban rail rail_electric rail_fast ship" speed="17.88" length="0.25" shape="1001.35,759.14 1001.16,759.27"/>
        <lane id=":1715694380_0_1" index="1" disallow="tram rail_urban rail rail_electric rail_fast ship" speed="17.88" length="0.25" shape="999.52,756.51 999.30,756.67"/>
    </edge>
    <edge id=":1715694380_2" function="internal">
        <lane id=":1715694380_2_0" index="0" disallow="tram rail_urban rail rail_electric rail_fast ship" speed="17.88" length="0.33" shape="995.58,751.46 995.87,751.25"/>
        <lane id=":1715694380_2_1" index="1" disallow="tram rail_urban rail rail_electric rail_fast ship" speed="17.88" length="0.33" shape="997.44,754.06 997.70,753.88"/>
    </edge>
    <edge id=":1715694380_w0" function="walkingarea">
        <lane id=":1715694380_w0_0" index="0" allow="pedestrian" speed="1.00" length="6.50" width="3.20" shape="1002.26,760.45 1000.44,757.82 998.61,755.20 996.78,752.57 994.96,749.94 994.66,750.15 996.51,752.76 998.37,755.36 1000.23,757.97 1002.09,760.58"/>
    </edge>
    <edge id=":1715694384_0" function="internal">
        <lane id=":1715694384_0_0" index="0" disallow="tram rail_urban rail rail_electric rail_fast ship" speed="17.88" length="0.21" shape="818.72,887.55 818.57,887.64"/>
        <lane id=":1715694384_0_1" index="1" disallow="tram rail_urban rail rail_electric rail_fast ship" speed="17.88" length="0.21" shape="816.97,884.87 816.77,885.00"/>
    </edge>
    <edge id=":1715694384_2" function="internal">
        <lane id=":1715694384_2_0" index="0" disallow="tram rail_urban rail rail_electric rail_fast ship" speed="3.65" length="2.34" shape="816.97,884.87 815.53,884.85 814.75,884.40"/>
    </edge>
    <edge id=":1715694384_6" function="internal">
        <lane id=":1715694384_6_0" index="0" disallow="tram rail_urban rail rail_electric rail_fast ship" speed="3.65" length="2.34" shape="814.75,884.40 814.65,883.51 815.22,882.18"/>
    </edge>
    <edge id=":1715694384_3" function="internal">
        <lane id=":1715694384_3_0" index="0" disallow="tram rail_urban rail rail_electric rail_fast ship" speed="17.88" length="0.35" shape="813.16,879.71 813.48,879.50"/>
        <lane id=":1715694384_3_1" index="1" disallow="tram rail_urban rail rail_electric rail_fast ship" speed="17.88" length="0.35" shape="814.96,882.36 815.22,882.18"/>
    </edge>
    <edge id=":1715694384_5" function="internal">
        <lane id=":1715694384_5_0" index="0" disallow="tram rail_urban rail rail_electric rail_fast ship" speed="3.65" length="2.34" shape="814.96,882.36 816.41,882.34 817.19,882.78"/>
    </edge>
    <edge id=":1715694384_7" function="internal">
        <lane id=":1715694384_7_0" index="0" disallow="tram rail_urban rail rail_electric rail_fast ship" speed="3.65" length="2.34" shape="817.19,882.78 817.31,883.66 816.77,885.00"/>
    </edge>
    <edge id=":1715694384_w0" function="walkingarea">
        <lane id=":1715694384_w0_0" index="0" allow="pedestrian" speed="1.00" length="6.49" width="3.20" shape="819.59,888.89 817.84,886.21 816.10,883.52 814.35,880.84 812.60,878.16 812.26,878.39 814.06,881.04 815.87,883.68 817.67,886.32 819.48,888.96"/>
    </edge>
    <edge id=":1715694385_0" function="internal">
        <lane id=":1715694385_0_0" index="0" disallow="tram rail_urban rail rail_electric rail_fast ship" speed="17.88" length="0.10" shape="756.39,932.48 756.39,932.48"/>
        <lane id=":1715694385_0_1" index="1" disallow="tram rail_urban rail rail_electric rail_fast ship" speed="17.88" length="0.10" shape="754.34,930.03 754.34,930.03"/>
    </edge>
    <edge id=":1715694385_2" function="internal">
        <lane id=":1715694385_2_0" index="0" disallow="tram rail_urban rail rail_electric rail_fast ship" speed="17.88" length="0.10" shape="750.23,925.12 750.23,925.12"/>
        <lane id=":1715694385_2_1" index="1" disallow="tram rail_urban rail rail_electric rail_fast ship" speed="17.88" length="0.10" shape="752.28,927.57 752.28,927.57"/>
    </edge>
    <edge id=":1715694385_w0" function="walkingarea">
        <lane id=":1715694385_w0_0" index="0" allow="pedestrian" speed="1.00" length="6.40" width="3.20" shape="757.42,933.70 755.37,931.25 753.31,928.80 751.25,926.35 749.20,923.90 751.25,926.35 753.31,928.80 755.37,931.25 757.42,933.70"/>
    </edge>
    <edge id=":2003213676_0" function="internal">
        <lane id=":2003213676_0_0" index="0" disallow="tram rail_urban rail rail_electric rail_fast ship" speed="3.65" length="4.67" shape="659.87,1062.76 658.67,1063.57 657.78,1063.63 657.19,1062.95 656.91,1061.54"/>
    </edge>
    <edge id=":2003213676_w0" function="walkingarea">
        <lane id=":2003213676_w0_0" index="0" allow="pedestrian" speed="1.00" length="9.60" width="3.20" shape="658.39,1062.15 655.44,1060.92 652.48,1059.69 664.30,1064.61 661.34,1063.38 658.39,1062.15"/>
    </edge>
    <edge id=":2407164362_0" function="internal">
        <lane id=":2407164362_0_0" index="0" allow="private emergency authority army vip passenger hov taxi bus coach delivery truck trailer motorcycle evehicle" speed="4.47" length="10.73" shape="1164.62,568.04 1156.59,560.93"/>
    </edge>
    <edge id=":2407164362_1" function="internal">
        <lane id=":2407164362_1_0" index="0" allow="private emergency authority army vip passenger hov taxi bus coach delivery truck trailer motorcycle evehicle" speed="5.01" length="8.66" shape="1164.62,568.04 1163.16,566.27 1162.70,564.43 1163.24,562.53 1164.78,560.56"/>
    </edge>
    <edge id=":2407164365_0" function="internal">
        <lane id=":2407164365_0_0" index="0" allow="private emergency authority army vip passenger hov taxi bus coach delivery truck trailer motorcycle evehicle" speed="8.40" length="12.54" shape="1218.29,615.60 1215.82,614.22 1213.07,613.92 1210.04,614.72 1206.73,616.60"/>
    </edge>
    <edge id=":2407164365_1" function="internal">
        <lane id=":2407164365_1_0" index="0" allow="private emergency authority army vip passenger hov taxi bus coach delivery truck trailer motorcycle evehicle" speed="4.47" length="21.98" shape="1218.29,615.60 1201.64,601.25"/>
    </edge>
    <edge id=":2407164365_2" function="internal">
        <lane id=":2407164365_2_0" index="0" allow="private emergency authority army vip passenger hov taxi bus coach delivery truck trailer motorcycle evehicle" speed="7.68" length="15.51" shape="1218.29,615.60 1214.41,611.78 1212.52,608.41 1212.64,605.48 1214.77,602.99"/>
    </edge>
    <edge id=":2407164365_3" function="internal">
        <lane id=":2407164365_3_0" index="0" disallow="tram rail_urban rail rail_electric rail_fast ship" speed="17.88" length="14.47" shape="1218.53,608.18 1206.73,616.60"/>
        <lane id=":2407164365_3_1" index="1" disallow="tram rail_urban rail rail_electric rail_fast ship" speed="17.88" length="14.47" shape="1216.65,605.58 1204.89,613.98"/>
    </edge>
    <edge id=":2407164365_5" function="internal">
        <lane id=":2407164365_5_0" index="0" allow="private emergency authority army vip passenger hov taxi bus coach delivery truck trailer motorcycle evehicle" speed="9.43" length="3.14" shape="1216.65,605.58 1213.75,606.78"/>
    </edge>
    <edge id=":2407164365_6" function="internal">
        <lane id=":2407164365_6_0" index="0" disallow="tram rail_urban rail rail_electric rail_fast ship" speed="3.65" length="1.44" shape="1216.65,605.58 1215.21,605.64"/>
    </edge>
    <edge id=":2407164365_11" function="internal">
        <lane id=":2407164365_11_0" index="0" allow="private emergency authority army vip passenger hov taxi bus coach delivery truck trailer motorcycle evehicle" speed="9.43" length="13.71" shape="1213.75,606.78 1213.59,606.85 1210.08,606.55 1206.09,604.68 1201.64,601.25"/>
    </edge>
    <edge id=":2407164365_12" function="internal">
        <lane id=":2407164365_12_0" index="0" disallow="tram rail_urban rail rail_electric rail_fast ship" speed="3.65" length="3.23" shape="1215.21,605.64 1214.41,605.23 1214.27,604.35 1214.77,602.99"/>
    </edge>
    <edge id=":2407164365_7" function="internal">
        <lane id=":2407164365_7_0" index="0" allow="private emergency authority army vip passenger hov taxi bus coach delivery truck trailer motorcycle evehicle" speed="6.06" length="9.06" shape="1201.18,608.71 1203.06,606.96 1203.77,605.13 1203.29,603.23 1201.64,601.25"/>
    </edge>
    <edge id=":2407164365_8" function="internal">
        <lane id=":2407164365_8_0" index="0" disallow="tram rail_urban rail rail_electric rail_fast ship" speed="17.88" length="14.38" shape="1201.18,608.71 1212.89,600.40"/>
        <lane id=":2407164365_8_1" index="1" disallow="tram rail_urban rail rail_electric rail_fast ship" speed="17.88" length="14.38" shape="1203.02,611.32 1214.77,602.99"/>
    </edge>
    <edge id=":2407164365_10" function="internal">
        <lane id=":2407164365_10_0" index="0" disallow="tram rail_urban rail rail_electric rail_fast ship" speed="3.67" length="1.47" shape="1203.02,611.32 1204.49,611.29"/>
    </edge>
    <edge id=":2407164365_13" function="internal">
        <lane id=":2407164365_13_0" index="0" disallow="tram rail_urban rail rail_electric rail_fast ship" speed="3.67" length="3.28" shape="1204.49,611.29 1205.29,611.72 1205.42,612.62 1204.89,613.98"/>
    </edge>
    <edge id=":2407164365_w0" function="walkingarea">
        <lane id=":2407164365_w0_0" index="0" allow="pedestrian" speed="1.00" length="9.60" width="3.20" shape="1219.47,609.47 1217.59,606.88 1215.71,604.29 1213.83,601.70 1211.95,599.11"/>
    </edge>
    <edge id=":2407164365_w1" function="walkingarea">
        <lane id=":2407164365_w1_0" index="0" allow="pedestrian" speed="1.00" length="9.65" width="3.20" shape="1200.27,607.39 1202.09,610.02 1203.93,612.64 1205.81,615.29 1207.65,617.91"/>
    </edge>
    <edge id=":3655880346_0" function="internal">
        <lane id=":3655880346_0_0" index="0" disallow="tram rail_urban rail rail_electric rail_fast ship" speed="10.95" length="13.56" shape="843.37,880.59 839.11,879.38 835.50,878.89 832.53,879.12 830.21,880.06"/>
    </edge>
    <edge id=":3655880346_1" function="internal">
        <lane id=":3655880346_1_0" index="0" disallow="tram rail_urban rail rail_electric rail_fast ship" speed="8.14" length="22.11" shape="843.37,880.59 836.86,877.51 834.14,874.03 835.20,870.16 840.05,865.88"/>
    </edge>
    <edge id=":3655880346_2" function="internal">
        <lane id=":3655880346_2_0" index="0" disallow="tram rail_urban rail rail_electric rail_fast ship" speed="3.65" length="1.44" shape="843.37,880.59 842.50,879.45"/>
    </edge>
    <edge id=":3655880346_10" function="internal">
        <lane id=":3655880346_10_0" index="0" disallow="tram rail_urban rail rail_electric rail_fast ship" speed="3.65" length="3.23" shape="842.50,879.45 842.38,878.56 843.01,877.93 844.41,877.57"/>
    </edge>
    <edge id=":3655880346_3" function="internal">
        <lane id=":3655880346_3_0" index="0" disallow="tram rail_urban rail rail_electric rail_fast ship" speed="5.55" length="9.42" shape="843.59,871.21 841.38,873.11 840.78,874.80 841.79,876.29 844.41,877.57"/>
    </edge>
    <edge id=":3655880346_4" function="internal">
        <lane id=":3655880346_4_0" index="0" disallow="tram rail_urban rail rail_electric rail_fast ship" speed="17.88" length="16.04" shape="843.59,871.21 830.21,880.06"/>
        <lane id=":3655880346_4_1" index="1" disallow="tram rail_urban rail rail_electric rail_fast ship" speed="17.88" length="16.04" shape="841.82,868.55 828.46,877.38"/>
    </edge>
    <edge id=":3655880346_6" function="internal">
        <lane id=":3655880346_6_0" index="0" disallow="tram rail_urban rail rail_electric rail_fast ship" speed="17.88" length="15.98" shape="824.97,872.02 838.29,863.21"/>
        <lane id=":3655880346_6_1" index="1" disallow="tram rail_urban rail rail_electric rail_fast ship" speed="17.88" length="15.98" shape="826.71,874.70 840.05,865.88"/>
    </edge>
    <edge id=":3655880346_8" function="internal">
        <lane id=":3655880346_8_0" index="0" disallow="tram rail_urban rail rail_electric rail_fast ship" speed="12.63" length="2.29" shape="826.71,874.70 828.92,874.12"/>
    </edge>
    <edge id=":3655880346_9" function="internal">
        <lane id=":3655880346_9_0" index="0" disallow="tram rail_urban rail rail_electric rail_fast ship" speed="3.65" length="1.44" shape="826.71,874.70 828.15,874.72"/>
    </edge>
    <edge id=":3655880346_11" function="internal">
        <lane id=":3655880346_11_0" index="0" disallow="tram rail_urban rail rail_electric rail_fast ship" speed="12.63" length="15.94" shape="828.92,874.12 829.03,874.09 832.75,874.37 837.87,875.53 844.41,877.57"/>
    </edge>
    <edge id=":3655880346_12" function="internal">
        <lane id=":3655880346_12_0" index="0" disallow="tram rail_urban rail rail_electric rail_fast ship" speed="3.65" length="3.23" shape="828.15,874.72 828.93,875.17 829.03,876.06 828.46,877.38"/>
    </edge>