<?xml version="1.0" encoding="UTF-8"?>

<!-- generated on 2021-06-30 10:04:08 by Eclipse SUMO netedit Version 1.9.2
<configuration xmlns:xsi="http://www.w3.org/2001/XMLSchema-instance" xsi:noNamespaceSchemaLocation="http://sumo.dlr.de/xsd/netconvertConfiguration.xsd">

    <output>
        <output-file value="C:\Users\crump\OneDrive\Documents\GitHub\Scenic-Sumo\Map\TwoWayJunction\TwoWayJunction.net.xml"/>
    </output>

    <processing>
        <offset.disable-normalization value="true"/>
    </processing>

    <junctions>
        <no-turnarounds value="true"/>
    </junctions>

    <report>
        <aggregate-warnings value="5"/>
    </report>

</configuration>
-->

<net version="1.9" junctionCornerDetail="5" limitTurnSpeed="5.50" xmlns:xsi="http://www.w3.org/2001/XMLSchema-instance" xsi:noNamespaceSchemaLocation="http://sumo.dlr.de/xsd/net_file.xsd">

    <location netOffset="0.00,0.00" convBoundary="-50.00,-100.00,200.00,100.00" origBoundary="10000000000.00,10000000000.00,-10000000000.00,-10000000000.00" projParameter="!"/>

    <edge id=":n3_0" function="internal">
        <lane id=":n3_0_0" index="0" speed="8.34" length="6.20" shape="47.70,-4.57 49.14,-3.27 50.50,-2.34 51.78,-1.79 52.98,-1.60"/>
    </edge>
    <edge id=":n3_1" function="internal">
        <lane id=":n3_1_0" index="0" speed="8.00" length="2.16" shape="47.70,0.04 48.64,-0.68 49.54,-1.06"/>
    </edge>
    <edge id=":n3_2" function="internal">
        <lane id=":n3_2_0" index="0" speed="8.00" length="3.51" shape="49.54,-1.06 49.84,-1.19 51.29,-1.50 52.98,-1.60"/>
    </edge>

    <edge id="e1" from="n1" to="n3" priority="-1">
        <lane id="e1_0" index="0" speed="15.00" length="139.76" shape="-51.13,98.87 47.70,0.04"/>
    </edge>
    <edge id="e2" from="n2" to="n3" priority="-1">
        <lane id="e2_0" index="0" speed="15.00" length="136.56" shape="-48.87,-101.13 47.70,-4.57"/>
    </edge>
    <edge id="e3" from="n3" to="n4" priority="-1">
        <lane id="e3_0" index="0" speed="15.00" length="147.02" shape="52.98,-1.60 200.00,-1.60"/>
    </edge>

    <junction id="n1" type="dead_end" x="-50.00" y="100.00" incLanes="" intLanes="" shape="-50.00,100.00 -52.26,97.74"/>
    <junction id="n2" type="dead_end" x="-50.00" y="-100.00" incLanes="" intLanes="" shape="-50.00,-100.00 -47.74,-102.26"/>
    <junction id="n3" type="priority" x="50.00" y="0.00" incLanes="e2_0 e1_0" intLanes=":n3_0_0 :n3_2_0" shape="52.98,0.00 52.98,-3.20 51.78,-3.48 51.12,-3.82 50.40,-4.31 49.64,-4.93 48.83,-5.70 46.57,-3.43 47.09,-2.65 47.15,-2.26 47.09,-1.87 46.89,-1.48 46.57,-1.09 48.83,1.17 49.81,0.52 50.45,0.29 51.20,0.13 52.04,0.03">
        <request index="0" response="00" foes="10" cont="0"/>
        <request index="1" response="01" foes="01" cont="1"/>
    </junction>
    <junction id="n4" type="dead_end" x="200.00" y="0.00" incLanes="e3_0" intLanes="" shape="200.00,-3.20 200.00,0.00"/>

    <junction id=":n3_2_0" type="internal" x="49.54" y="-1.06" incLanes=":n3_1_0 e2_0" intLanes=":n3_0_0"/>

    <connection from="e1" to="e3" fromLane="0" toLane="0" via=":n3_1_0" dir="l" state="m"/>
    <connection from="e2" to="e3" fromLane="0" toLane="0" via=":n3_0_0" dir="r" state="M"/>

    <connection from=":n3_0" to="e3" fromLane="0" toLane="0" dir="r" state="M"/>
    <connection from=":n3_1" to="e3" fromLane="0" toLane="0" via=":n3_2_0" dir="l" state="m"/>
    <connection from=":n3_2" to="e3" fromLane="0" toLane="0" dir="l" state="M"/>

</net>
