<additional><parkingArea id="park" lane="-e4_0" startPos="0" endPos="50" roadsideCapacity="5" angle="90" length="5" /><vType id="example" maneuverAngleTimes="10 3.0 4.0,80 1.6 11.0,110 11.0 2.0,170 8.1 3.0,181 3.0 4.0" /></additional>