<?xml version="1.0" encoding="UTF-8"?>

<!-- generated on 2021-10-03 15:29:58 by Eclipse SUMO netedit Version 1.9.2
<configuration xmlns:xsi="http://www.w3.org/2001/XMLSchema-instance" xsi:noNamespaceSchemaLocation="http://sumo.dlr.de/xsd/netconvertConfiguration.xsd">

    <output>
        <output-file value="C:\Users\crump\OneDrive\Documents\GitHub\Scenic-Sumo\Map\Test\Test.net.xml"/>
    </output>

    <processing>
        <offset.disable-normalization value="true"/>
    </processing>

    <junctions>
        <no-turnarounds value="true"/>
    </junctions>

    <report>
        <aggregate-warnings value="5"/>
    </report>

</configuration>
-->

<net version="1.9" junctionCornerDetail="5" limitTurnSpeed="5.50" xmlns:xsi="http://www.w3.org/2001/XMLSchema-instance" xsi:noNamespaceSchemaLocation="http://sumo.dlr.de/xsd/net_file.xsd">

    <location netOffset="0.00,0.00" convBoundary="-100.00,-50.00,50.00,0.00" origBoundary="10000000000.00,10000000000.00,-10000000000.00,-10000000000.00" projParameter="!"/>

    <edge id=":gneJ1_0" function="internal">
        <lane id=":gneJ1_0_0" index="0" speed="4.22" length="1.28" shape="-1.33,-1.60 -0.95,-1.61 -0.69,-1.67 -0.47,-1.81 -0.19,-2.07"/>
    </edge>

    <edge id="gneE0" from="gneJ0" to="gneJ1" priority="-1">
        <lane id="gneE0_0" index="0" speed="13.89" length="98.67" shape="-100.00,-1.60 -1.33,-1.60"/>
    </edge>
    <edge id="gneE1" from="gneJ1" to="gneJ3" priority="-1">
        <lane id="gneE1_0" index="0" speed="13.89" length="69.39" shape="-0.19,-2.07 48.87,-51.13"/>
    </edge>

    <junction id="gneJ0" type="dead_end" x="-100.00" y="0.00" incLanes="" intLanes="" shape="-100.00,0.00 -100.00,-3.20"/>
    <junction id="gneJ1" type="priority" x="0.00" y="0.00" incLanes="gneE0_0" intLanes=":gneJ1_0_0" shape="0.94,-0.94 -1.33,-3.20 -1.33,0.00 -0.39,-0.05 -0.06,-0.14 0.24,-0.31 0.55,-0.57">
        <request index="0" response="0" foes="0" cont="0"/>
    </junction>
    <junction id="gneJ3" type="dead_end" x="50.00" y="-50.00" incLanes="gneE1_0" intLanes="" shape="47.74,-52.26 50.00,-50.00"/>

    <connection from="gneE0" to="gneE1" fromLane="0" toLane="0" via=":gneJ1_0_0" dir="r" state="M"/>

    <connection from=":gneJ1_0" to="gneE1" fromLane="0" toLane="0" dir="r" state="M"/>

</net>
