<?xml version="1.0" encoding="UTF-8"?>

<!-- generated on 2021-06-15 17:58:46 by Eclipse SUMO netedit Version 1.9.2
<configuration xmlns:xsi="http://www.w3.org/2001/XMLSchema-instance" xsi:noNamespaceSchemaLocation="http://sumo.dlr.de/xsd/netconvertConfiguration.xsd">

    <input>
        <sumo-net-file value="C:\Users\crump\OneDrive\Documents\Research\Akbas\Map\test.net.xml"/>
    </input>

    <output>
        <output-file value="C:\Users\crump\OneDrive\Documents\Research\Akbas\Map\test.net.xml"/>
    </output>

    <processing>
        <geometry.min-radius.fix.railways value="false"/>
        <geometry.max-grade.fix value="false"/>
        <offset.disable-normalization value="true"/>
        <lefthand value="false"/>
    </processing>

    <junctions>
        <no-turnarounds value="true"/>
        <junctions.corner-detail value="5"/>
        <junctions.limit-turn-speed value="5.5"/>
        <rectangular-lane-cut value="false"/>
    </junctions>

    <pedestrian>
        <walkingareas value="false"/>
    </pedestrian>

    <report>
        <aggregate-warnings value="5"/>
    </report>

</configuration>
-->

<net version="1.9" junctionCornerDetail="5" limitTurnSpeed="5.50" xmlns:xsi="http://www.w3.org/2001/XMLSchema-instance" xsi:noNamespaceSchemaLocation="http://sumo.dlr.de/xsd/net_file.xsd">

    <location netOffset="-494225.46,-3228441.43" convBoundary="0.00,0.00,1657.17,1219.86" origBoundary="-81.059398,29.183689,-81.042348,29.195629" projParameter="+proj=utm +zone=17 +ellps=WGS84 +datum=WGS84 +units=m +no_defs"/>

    <type id="highway.bridleway" priority="1" numLanes="1" speed="2.78" allow="pedestrian" oneway="1" width="2.00"/>
    <type id="highway.bus_guideway" priority="1" numLanes="1" speed="27.78" allow="bus" oneway="1"/>
    <type id="highway.cycleway" priority="1" numLanes="1" speed="8.33" allow="bicycle" oneway="1" width="1.00"/>
    <type id="highway.footway" priority="1" numLanes="1" speed="2.78" allow="pedestrian" oneway="1" width="2.00"/>
    <type id="highway.ford" priority="1" numLanes="1" speed="2.78" allow="army" oneway="1"/>
    <type id="highway.living_street" priority="2" numLanes="1" speed="2.78" disallow="tram rail_urban rail rail_electric rail_fast ship" oneway="1"/>
    <type id="highway.motorway" priority="14" numLanes="2" speed="39.44" allow="private emergency authority army vip passenger hov taxi bus coach delivery truck trailer motorcycle evehicle custom1 custom2" oneway="1"/>
    <type id="highway.motorway_link" priority="9" numLanes="1" speed="22.22" allow="private emergency authority army vip passenger hov taxi bus coach delivery truck trailer motorcycle evehicle custom1 custom2" oneway="1"/>
    <type id="highway.path" priority="1" numLanes="1" speed="2.78" allow="pedestrian bicycle" oneway="1" width="2.00"/>
    <type id="highway.pedestrian" priority="1" numLanes="1" speed="2.78" allow="pedestrian" oneway="1" width="2.00"/>
    <type id="highway.primary" priority="12" numLanes="2" speed="27.78" disallow="tram rail_urban rail rail_electric rail_fast ship" oneway="1"/>
    <type id="highway.primary_link" priority="7" numLanes="1" speed="22.22" disallow="tram rail_urban rail rail_electric rail_fast ship" oneway="1"/>
    <type id="highway.raceway" priority="15" numLanes="2" speed="83.33" allow="vip" oneway="1"/>
    <type id="highway.residential" priority="3" numLanes="1" speed="13.89" disallow="tram rail_urban rail rail_electric rail_fast ship" oneway="1"/>
    <type id="highway.secondary" priority="11" numLanes="1" speed="27.78" disallow="tram rail_urban rail rail_electric rail_fast ship" oneway="1"/>
    <type id="highway.secondary_link" priority="6" numLanes="1" speed="22.22" disallow="tram rail_urban rail rail_electric rail_fast ship" oneway="1"/>
    <type id="highway.service" priority="1" numLanes="1" speed="5.56" allow="pedestrian delivery bicycle" oneway="1"/>
    <type id="highway.stairs" priority="1" numLanes="1" speed="1.39" allow="pedestrian" oneway="1" width="2.00"/>
    <type id="highway.step" priority="1" numLanes="1" speed="1.39" allow="pedestrian" oneway="1" width="2.00"/>
    <type id="highway.steps" priority="1" numLanes="1" speed="1.39" allow="pedestrian" oneway="1" width="2.00"/>
    <type id="highway.tertiary" priority="10" numLanes="1" speed="22.22" disallow="tram rail_urban rail rail_electric rail_fast ship" oneway="1"/>
    <type id="highway.tertiary_link" priority="5" numLanes="1" speed="22.22" disallow="tram rail_urban rail rail_electric rail_fast ship" oneway="1"/>
    <type id="highway.track" priority="1" numLanes="1" speed="5.56" allow="pedestrian motorcycle moped bicycle" oneway="1"/>
    <type id="highway.trunk" priority="13" numLanes="2" speed="27.78" disallow="pedestrian bicycle tram rail_urban rail rail_electric rail_fast ship" oneway="1"/>
    <type id="highway.trunk_link" priority="8" numLanes="1" speed="22.22" disallow="pedestrian bicycle tram rail_urban rail rail_electric rail_fast ship" oneway="1"/>
    <type id="highway.unclassified" priority="4" numLanes="1" speed="13.89" disallow="tram rail_urban rail rail_electric rail_fast ship" oneway="1"/>
    <type id="highway.unsurfaced" priority="1" numLanes="1" speed="8.33" disallow="tram rail_urban rail rail_electric rail_fast ship" oneway="1"/>
    <type id="railway.highspeed" priority="21" numLanes="1" speed="69.44" allow="rail_fast" oneway="1"/>
    <type id="railway.light_rail" priority="19" numLanes="1" speed="27.78" allow="rail_urban" oneway="1"/>
    <type id="railway.preserved" priority="16" numLanes="1" speed="27.78" allow="rail" oneway="1"/>
    <type id="railway.rail" priority="20" numLanes="1" speed="44.44" allow="rail" oneway="1"/>
    <type id="railway.subway" priority="18" numLanes="1" speed="27.78" allow="rail_urban" oneway="1"/>
    <type id="railway.tram" priority="17" numLanes="1" speed="13.89" allow="tram" oneway="1"/>

    <edge id=":101023386_0" function="internal">
        <lane id=":101023386_0_0" index="0" disallow="tram rail_urban rail rail_electric rail_fast ship" speed="17.88" length="16.35" shape="858.23,861.18 844.71,870.47"/>
        <lane id=":101023386_0_1" index="1" disallow="tram rail_urban rail rail_electric rail_fast ship" speed="17.88" length="16.35" shape="856.37,858.57 842.94,867.81"/>
    </edge>
    <edge id=":101023386_2" function="internal">
        <lane id=":101023386_2_0" index="0" disallow="tram rail_urban rail rail_electric rail_fast ship" speed="3.65" length="2.34" shape="856.37,858.57 854.93,858.62 854.14,858.20"/>
    </edge>
    <edge id=":101023386_6" function="internal">
        <lane id=":101023386_6_0" index="0" disallow="tram rail_urban rail rail_electric rail_fast ship" speed="3.65" length="2.34" shape="854.14,858.20 854.00,857.32 854.51,855.97"/>
    </edge>
    <edge id=":101023386_3" function="internal">
        <lane id=":101023386_3_0" index="0" disallow="tram rail_urban rail rail_electric rail_fast ship" speed="17.88" length="16.14" shape="839.40,862.47 852.65,853.36"/>
        <lane id=":101023386_3_1" index="1" disallow="tram rail_urban rail rail_electric rail_fast ship" speed="17.88" length="16.14" shape="841.17,865.14 854.51,855.97"/>
    </edge>
    <edge id=":101023386_5" function="internal">
        <lane id=":101023386_5_0" index="0" disallow="tram rail_urban rail rail_electric rail_fast ship" speed="3.65" length="2.34" shape="841.17,865.14 842.61,865.14 843.39,865.59"/>
    </edge>
    <edge id=":101023386_7" function="internal">
        <lane id=":101023386_7_0" index="0" disallow="tram rail_urban rail rail_electric rail_fast ship" speed="3.65" length="2.34" shape="843.39,865.59 843.50,866.48 842.94,867.81"/>
    </edge>
    <edge id=":101027936_0" function="internal">
        <lane id=":101027936_0_0" index="0" allow="pedestrian delivery bicycle" speed="4.89" length="5.19" shape="1229.00,600.50 1227.97,601.53 1227.58,602.60 1227.83,603.71 1228.71,604.87"/>
    </edge>
    <edge id=":101027936_1" function="internal">
        <lane id=":101027936_1_0" index="0" disallow="tram rail_urban rail rail_electric rail_fast ship" speed="17.88" length="8.68" shape="1229.00,600.50 1221.99,605.66"/>
        <lane id=":101027936_1_1" index="1" disallow="tram rail_urban rail rail_electric rail_fast ship" speed="17.88" length="8.68" shape="1227.07,597.94 1220.11,603.07"/>
    </edge>
    <edge id=":101027936_3" function="internal">
        <lane id=":101027936_3_0" index="0" disallow="tram rail_urban rail rail_electric rail_fast ship" speed="3.65" length="2.34" shape="1227.07,597.94 1225.63,598.02 1224.83,597.62"/>
    </edge>
    <edge id=":101027936_11" function="internal">
        <lane id=":101027936_11_0" index="0" disallow="tram rail_urban rail rail_electric rail_fast ship" speed="3.65" length="2.34" shape="1224.83,597.62 1224.67,596.74 1225.15,595.38"/>
    </edge>
    <edge id=":101027936_4" function="internal">
        <lane id=":101027936_4_0" index="0" allow="pedestrian delivery bicycle" speed="6.36" length="7.29" shape="1216.58,593.52 1217.98,594.35 1219.55,594.51 1221.30,594.00 1223.23,592.82"/>
    </edge>
    <edge id=":101027936_5" function="internal">
        <lane id=":101027936_5_0" index="0" allow="pedestrian delivery bicycle" speed="4.47" length="16.61" shape="1216.58,593.52 1228.71,604.87"/>
    </edge>
    <edge id=":101027936_6" function="internal">
        <lane id=":101027936_6_0" index="0" allow="pedestrian delivery bicycle" speed="6.82" length="11.66" shape="1216.58,593.52 1219.61,596.63 1221.20,599.25 1221.37,601.40 1220.11,603.07"/>
    </edge>
    <edge id=":101027936_7" function="internal">
        <lane id=":101027936_7_0" index="0" disallow="tram rail_urban rail rail_electric rail_fast ship" speed="17.88" length="8.56" shape="1216.36,597.89 1223.23,592.82"/>
        <lane id=":101027936_7_1" index="1" disallow="tram rail_urban rail rail_electric rail_fast ship" speed="17.88" length="8.56" shape="1218.24,600.48 1225.15,595.38"/>
    </edge>
    <edge id=":101027936_9" function="internal">
        <lane id=":101027936_9_0" index="0" allow="pedestrian delivery bicycle" speed="7.94" length="3.36" shape="1218.24,600.48 1220.18,599.82 1221.46,600.09"/>
    </edge>
    <edge id=":101027936_10" function="internal">
        <lane id=":101027936_10_0" index="0" disallow="tram rail_urban rail rail_electric rail_fast ship" speed="3.65" length="2.34" shape="1218.24,600.48 1219.68,600.42 1220.47,600.84"/>
    </edge>
    <edge id=":101027936_12" function="internal">
        <lane id=":101027936_12_0" index="0" allow="pedestrian delivery bicycle" speed="7.94" length="8.80" shape="1221.46,600.09 1222.58,600.33 1225.42,602.01 1228.71,604.87"/>
    </edge>
    <edge id=":101027936_13" function="internal">
        <lane id=":101027936_13_0" index="0" disallow="tram rail_urban rail rail_electric rail_fast ship" speed="3.65" length="2.34" shape="1220.47,600.84 1220.62,601.72 1220.11,603.07"/>
    </edge>
    <edge id=":101121929_0" function="internal">
        <lane id=":101121929_0_0" index="0" disallow="tram rail_urban rail rail_electric rail_fast ship" speed="3.65" length="4.67" shape="1606.46,1099.08 1607.22,1100.31 1607.26,1101.20 1606.56,1101.76 1605.14,1102.00"/>
    </edge>
    <edge id=":101121931_0" function="internal">
        <lane id=":101121931_0_0" index="0" disallow="tram rail_urban rail rail_electric rail_fast ship" speed="5.85" length="7.36" shape="1470.73,1041.12 1468.38,1040.29 1466.53,1040.16 1465.16,1040.73 1464.29,1041.99"/>
    </edge>
    <edge id=":101121931_1" function="internal">
        <lane id=":101121931_1_0" index="0" disallow="tram rail_urban rail rail_electric rail_fast ship" speed="7.97" length="14.36" shape="1470.73,1041.12 1467.38,1038.99 1465.55,1036.32 1465.23,1033.11 1466.43,1029.37"/>
    </edge>
    <edge id=":101121931_2" function="internal">
        <lane id=":101121931_2_0" index="0" disallow="tram rail_urban rail rail_electric rail_fast ship" speed="3.65" length="4.67" shape="1470.73,1041.12 1469.97,1039.89 1469.93,1039.00 1470.63,1038.43 1472.05,1038.20"/>
    </edge>
    <edge id=":101121931_3" function="internal">
        <lane id=":101121931_3_0" index="0" disallow="tram rail_urban rail rail_electric rail_fast ship" speed="6.47" length="9.09" shape="1469.31,1030.77 1468.55,1033.13 1468.76,1035.16 1469.92,1036.85 1472.05,1038.20"/>
    </edge>
    <edge id=":101121931_4" function="internal">
        <lane id=":101121931_4_0" index="0" disallow="tram rail_urban rail rail_electric rail_fast ship" speed="13.89" length="12.29" shape="1469.31,1030.77 1464.29,1041.99"/>
    </edge>
    <edge id=":101121931_5" function="internal">
        <lane id=":101121931_5_0" index="0" disallow="tram rail_urban rail rail_electric rail_fast ship" speed="3.65" length="2.34" shape="1469.31,1030.77 1468.06,1031.49 1467.17,1031.50"/>
    </edge>
    <edge id=":101121931_9" function="internal">
        <lane id=":101121931_9_0" index="0" disallow="tram rail_urban rail rail_electric rail_fast ship" speed="3.65" length="2.34" shape="1467.17,1031.50 1466.62,1030.79 1466.43,1029.37"/>
    </edge>
    <edge id=":101121931_6" function="internal">
        <lane id=":101121931_6_0" index="0" disallow="tram rail_urban rail rail_electric rail_fast ship" speed="13.89" length="12.54" shape="1461.31,1040.81 1466.43,1029.37"/>
    </edge>
    <edge id=":101121931_7" function="internal">
        <lane id=":101121931_7_0" index="0" disallow="tram rail_urban rail rail_electric rail_fast ship" speed="7.46" length="4.95" shape="1461.31,1040.81 1462.92,1038.27 1464.61,1037.33"/>
    </edge>
    <edge id=":101121931_8" function="internal">
        <lane id=":101121931_8_0" index="0" disallow="tram rail_urban rail rail_electric rail_fast ship" speed="3.65" length="2.34" shape="1461.31,1040.81 1462.49,1039.99 1463.38,1039.91"/>
    </edge>
    <edge id=":101121931_10" function="internal">
        <lane id=":101121931_10_0" index="0" disallow="tram rail_urban rail rail_electric rail_fast ship" speed="7.46" length="7.72" shape="1464.61,1037.33 1465.24,1036.99 1468.29,1036.96 1472.05,1038.20"/>
    </edge>
    <edge id=":101121931_11" function="internal">
        <lane id=":101121931_11_0" index="0" disallow="tram rail_urban rail rail_electric rail_fast ship" speed="3.65" length="2.34" shape="1463.38,1039.91 1463.98,1040.58 1464.29,1041.99"/>
    </edge>
    <edge id=":101140793_0" function="internal">
        <lane id=":101140793_0_0" index="0" disallow="tram rail_urban rail rail_electric rail_fast ship" speed="3.65" length="4.67" shape="1653.59,993.20 1654.37,994.41 1654.42,995.31 1653.73,995.88 1652.31,996.14"/>
    </edge>
    <edge id=":101174336_0" function="internal">
        <lane id=":101174336_0_0" index="0" disallow="tram rail_urban rail rail_electric rail_fast ship" speed="3.65" length="4.67" shape="1436.26,1081.90 1434.87,1082.27 1434.00,1082.04 1433.67,1081.21 1433.86,1079.78"/>
    </edge>
    <edge id=":101174338_0" function="internal">
        <lane id=":101174338_0_0" index="0" disallow="tram rail_urban rail rail_electric rail_fast ship" speed="6.61" length="9.18" shape="1521.05,937.54 1518.61,936.81 1516.52,937.00 1514.78,938.11 1513.39,940.15"/>
    </edge>
    <edge id=":101174338_1" function="internal">
        <lane id=":101174338_1_0" index="0" disallow="tram rail_urban rail rail_electric rail_fast ship" speed="7.94" length="14.33" shape="1521.05,937.54 1517.74,935.41 1515.94,932.73 1515.67,929.53 1516.92,925.78"/>
    </edge>
    <edge id=":101174338_2" function="internal">
        <lane id=":101174338_2_0" index="0" disallow="tram rail_urban rail rail_electric rail_fast ship" speed="3.65" length="4.67" shape="1521.05,937.54 1520.30,936.32 1520.27,935.42 1520.96,934.86 1522.39,934.63"/>
    </edge>
    <edge id=":101174338_3" function="internal">
        <lane id=":101174338_3_0" index="0" disallow="tram rail_urban rail rail_electric rail_fast ship" speed="6.43" length="9.03" shape="1519.78,927.22 1518.99,929.58 1519.16,931.60 1520.30,933.29 1522.39,934.63"/>
    </edge>
    <edge id=":101174338_4" function="internal">
        <lane id=":101174338_4_0" index="0" disallow="tram rail_urban rail rail_electric rail_fast ship" speed="13.89" length="14.42" shape="1519.78,927.22 1513.39,940.15"/>
    </edge>
    <edge id=":101174338_5" function="internal">
        <lane id=":101174338_5_0" index="0" disallow="tram rail_urban rail rail_electric rail_fast ship" speed="3.65" length="2.34" shape="1519.78,927.22 1518.53,927.93 1517.64,927.93"/>
    </edge>
    <edge id=":101174338_9" function="internal">
        <lane id=":101174338_9_0" index="0" disallow="tram rail_urban rail rail_electric rail_fast ship" speed="3.65" length="2.34" shape="1517.64,927.93 1517.10,927.22 1516.92,925.78"/>
    </edge>
    <edge id=":101174338_6" function="internal">
        <lane id=":101174338_6_0" index="0" disallow="tram rail_urban rail rail_electric rail_fast ship" speed="13.89" length="14.46" shape="1510.51,938.75 1516.92,925.78"/>
    </edge>
    <edge id=":101174338_7" function="internal">
        <lane id=":101174338_7_0" index="0" disallow="tram rail_urban rail rail_electric rail_fast ship" speed="8.09" length="5.95" shape="1510.51,938.75 1512.68,935.56 1514.44,934.43"/>
    </edge>
    <edge id=":101174338_8" function="internal">
        <lane id=":101174338_8_0" index="0" disallow="tram rail_urban rail rail_electric rail_fast ship" speed="3.65" length="2.34" shape="1510.51,938.75 1511.76,938.02 1512.65,938.01"/>
    </edge>
    <edge id=":101174338_10" function="internal">
        <lane id=":101174338_10_0" index="0" disallow="tram rail_urban rail rail_electric rail_fast ship" speed="8.09" length="8.31" shape="1514.44,934.43 1515.38,933.81 1518.62,933.50 1522.39,934.63"/>
    </edge>
    <edge id=":101174338_11" function="internal">
        <lane id=":101174338_11_0" index="0" disallow="tram rail_urban rail rail_electric rail_fast ship" speed="3.65" length="2.34" shape="1512.65,938.01 1513.20,938.72 1513.39,940.15"/>
    </edge>
    <edge id=":1423875783_0" function="internal">
        <lane id=":1423875783_0_0" index="0" disallow="tram rail_urban rail rail_electric rail_fast ship" speed="6.65" length="9.30" shape="1462.18,442.13 1460.40,440.31 1458.46,439.48 1456.36,439.63 1454.10,440.78"/>
    </edge>
    <edge id=":1423875783_1" function="internal">
        <lane id=":1423875783_1_0" index="0" disallow="tram rail_urban rail rail_electric rail_fast ship" speed="13.89" length="20.95" shape="1462.18,442.13 1449.95,425.12"/>
    </edge>
    <edge id=":1423875783_2" function="internal">
        <lane id=":1423875783_2_0" index="0" disallow="tram rail_urban rail rail_electric rail_fast ship" speed="8.77" length="7.88" shape="1462.18,442.13 1459.57,437.63 1459.03,435.00"/>
    </edge>
    <edge id=":1423875783_3" function="internal">
        <lane id=":1423875783_3_0" index="0" disallow="tram rail_urban rail rail_electric rail_fast ship" speed="3.65" length="2.34" shape="1462.18,442.13 1462.11,440.69 1462.52,439.89"/>
    </edge>
    <edge id=":1423875783_18" function="internal">
        <lane id=":1423875783_18_0" index="0" disallow="tram rail_urban rail rail_electric rail_fast ship" speed="8.77" length="9.11" shape="1459.03,435.00 1458.74,433.62 1459.68,430.11 1462.39,427.09"/>
    </edge>
    <edge id=":1423875783_19" function="internal">
        <lane id=":1423875783_19_0" index="0" disallow="tram rail_urban rail rail_electric rail_fast ship" speed="3.65" length="2.34" shape="1462.52,439.89 1463.40,439.74 1464.76,440.23"/>
    </edge>
    <edge id=":1423875783_4" function="internal">
        <lane id=":1423875783_4_0" index="0" disallow="tram rail_urban rail rail_electric rail_fast ship" speed="6.55" length="9.02" shape="1466.00,432.38 1464.25,434.17 1463.45,436.07 1463.62,438.09 1464.76,440.23"/>
    </edge>
    <edge id=":1423875783_5" function="internal">
        <lane id=":1423875783_5_0" index="0" disallow="tram rail_urban rail rail_electric rail_fast ship" speed="19.00" length="14.59" shape="1466.00,432.38 1454.10,440.78"/>
        <lane id=":1423875783_5_1" index="1" disallow="tram rail_urban rail rail_electric rail_fast ship" speed="19.00" length="14.59" shape="1464.20,429.74 1452.26,438.16"/>
    </edge>
    <edge id=":1423875783_7" function="internal">
        <lane id=":1423875783_7_0" index="0" disallow="tram rail_urban rail rail_electric rail_fast ship" speed="8.60" length="5.59" shape="1464.20,429.74 1460.63,431.51 1459.02,431.43"/>
    </edge>
    <edge id=":1423875783_8" function="internal">
        <lane id=":1423875783_8_0" index="0" disallow="tram rail_urban rail rail_electric rail_fast ship" speed="3.65" length="2.34" shape="1464.20,429.74 1462.75,429.75 1461.97,429.32"/>
    </edge>
    <edge id=":1423875783_20" function="internal">
        <lane id=":1423875783_20_0" index="0" disallow="tram rail_urban rail rail_electric rail_fast ship" speed="8.60" length="11.52" shape="1459.02,431.43 1457.06,431.33 1453.50,429.20 1449.95,425.12"/>
    </edge>
    <edge id=":1423875783_21" function="internal">
        <lane id=":1423875783_21_0" index="0" disallow="tram rail_urban rail rail_electric rail_fast ship" speed="3.65" length="2.34" shape="1461.97,429.32 1461.85,428.43 1462.39,427.09"/>
    </edge>
    <edge id=":1423875783_9" function="internal">
        <lane id=":1423875783_9_0" index="0" disallow="tram rail_urban rail rail_electric rail_fast ship" speed="6.51" length="9.33" shape="1452.57,423.28 1454.32,425.14 1456.24,425.95 1458.33,425.72 1460.58,424.44"/>
    </edge>
    <edge id=":1423875783_10" function="internal">
        <lane id=":1423875783_10_0" index="0" disallow="tram rail_urban rail rail_electric rail_fast ship" speed="13.89" length="20.88" shape="1452.57,423.28 1464.76,440.23"/>
    </edge>
    <edge id=":1423875783_11" function="internal">
        <lane id=":1423875783_11_0" index="0" disallow="tram rail_urban rail rail_electric rail_fast ship" speed="8.67" length="7.69" shape="1452.57,423.28 1455.14,427.89 1455.61,430.25"/>
    </edge>
    <edge id=":1423875783_12" function="internal">
        <lane id=":1423875783_12_0" index="0" disallow="tram rail_urban rail rail_electric rail_fast ship" speed="3.65" length="2.34" shape="1452.57,423.28 1452.60,424.72 1452.18,425.51"/>
    </edge>
    <edge id=":1423875783_22" function="internal">
        <lane id=":1423875783_22_0" index="0" disallow="tram rail_urban rail rail_electric rail_fast ship" speed="8.67" length="9.17" shape="1455.61,430.25 1455.94,431.91 1454.98,435.33 1452.26,438.16"/>
    </edge>
    <edge id=":1423875783_23" function="internal">
        <lane id=":1423875783_23_0" index="0" disallow="tram rail_urban rail rail_electric rail_fast ship" speed="3.65" length="2.34" shape="1452.18,425.51 1451.29,425.64 1449.95,425.12"/>
    </edge>
    <edge id=":1423875783_13" function="internal">
        <lane id=":1423875783_13_0" index="0" disallow="tram rail_urban rail rail_electric rail_fast ship" speed="6.51" length="9.03" shape="1448.58,432.92 1450.39,431.22 1451.22,429.36 1451.07,427.33 1449.95,425.12"/>
    </edge>
    <edge id=":1423875783_14" function="internal">
        <lane id=":1423875783_14_0" index="0" disallow="tram rail_urban rail rail_electric rail_fast ship" speed="19.00" length="14.67" shape="1448.58,432.92 1460.58,424.44"/>
        <lane id=":1423875783_14_1" index="1" disallow="tram rail_urban rail rail_electric rail_fast ship" speed="19.00" length="14.67" shape="1450.42,435.54 1462.39,427.09"/>
    </edge>
    <edge id=":1423875783_16" function="internal">
        <lane id=":1423875783_16_0" index="0" disallow="tram rail_urban rail rail_electric rail_fast ship" speed="8.78" length="5.25" shape="1450.42,435.54 1454.01,433.94 1455.33,434.04"/>
    </edge>
    <edge id=":1423875783_17" function="internal">
        <lane id=":1423875783_17_0" index="0" disallow="tram rail_urban rail rail_electric rail_fast ship" speed="3.65" length="2.34" shape="1450.42,435.54 1451.86,435.50 1452.65,435.93"/>
    </edge>
    <edge id=":1423875783_24" function="internal">
        <lane id=":1423875783_24_0" index="0" disallow="tram rail_urban rail rail_electric rail_fast ship" speed="8.78" length="11.75" shape="1455.33,434.04 1457.60,434.19 1461.18,436.29 1464.76,440.23"/>
    </edge>
    <edge id=":1423875783_25" function="internal">
        <lane id=":1423875783_25_0" index="0" disallow="tram rail_urban rail rail_electric rail_fast ship" speed="3.65" length="2.34" shape="1452.65,435.93 1452.78,436.81 1452.26,438.16"/>
    </edge>
    <edge id=":1715694380_0" function="internal">
        <lane id=":1715694380_0_0" index="0" disallow="tram rail_urban rail rail_electric rail_fast ship" speed="17.88" length="0.25" shape="1001.35,759.14 1001.16,759.27"/>
        <lane id=":1715694380_0_1" index="1" disallow="tram rail_urban rail rail_electric rail_fast ship" speed="17.88" length="0.25" shape="999.52,756.51 999.30,756.67"/>
    </edge>
    <edge id=":1715694380_2" function="internal">
        <lane id=":1715694380_2_0" index="0" disallow="tram rail_urban rail rail_electric rail_fast ship" speed="17.88" length="0.33" shape="995.58,751.46 995.87,751.25"/>
        <lane id=":1715694380_2_1" index="1" disallow="tram rail_urban rail rail_electric rail_fast ship" speed="17.88" length="0.33" shape="997.44,754.06 997.70,753.88"/>
    </edge>
    <edge id=":1715694384_0" function="internal">
        <lane id=":1715694384_0_0" index="0" disallow="tram rail_urban rail rail_electric rail_fast ship" speed="17.88" length="14.07" shape="823.25,884.59 811.60,892.41"/>
        <lane id=":1715694384_0_1" index="1" disallow="tram rail_urban rail rail_electric rail_fast ship" speed="17.88" length="14.07" shape="821.51,881.91 809.79,889.77"/>
    </edge>
    <edge id=":1715694384_2" function="internal">
        <lane id=":1715694384_2_0" index="0" disallow="tram rail_urban rail rail_electric rail_fast ship" speed="3.65" length="2.34" shape="821.51,881.91 820.07,881.89 819.29,881.44"/>
    </edge>
    <edge id=":1715694384_6" function="internal">
        <lane id=":1715694384_6_0" index="0" disallow="tram rail_urban rail rail_electric rail_fast ship" speed="3.65" length="2.34" shape="819.29,881.44 819.19,880.55 819.76,879.23"/>
    </edge>
    <edge id=":1715694384_3" function="internal">
        <lane id=":1715694384_3_0" index="0" disallow="tram rail_urban rail rail_electric rail_fast ship" speed="17.88" length="14.21" shape="806.18,884.48 818.02,876.55"/>
        <lane id=":1715694384_3_1" index="1" disallow="tram rail_urban rail rail_electric rail_fast ship" speed="17.88" length="14.21" shape="807.99,887.12 819.76,879.23"/>
    </edge>
    <edge id=":1715694384_5" function="internal">
        <lane id=":1715694384_5_0" index="0" disallow="tram rail_urban rail rail_electric rail_fast ship" speed="3.65" length="2.34" shape="807.99,887.12 809.43,887.11 810.21,887.54"/>
    </edge>
    <edge id=":1715694384_7" function="internal">
        <lane id=":1715694384_7_0" index="0" disallow="tram rail_urban rail rail_electric rail_fast ship" speed="3.65" length="2.34" shape="810.21,887.54 810.33,888.43 809.79,889.77"/>
    </edge>
    <edge id=":1715694385_0" function="internal">
        <lane id=":1715694385_0_0" index="0" disallow="tram rail_urban rail rail_electric rail_fast ship" speed="17.88" length="0.10" shape="756.39,932.48 756.39,932.48"/>
        <lane id=":1715694385_0_1" index="1" disallow="tram rail_urban rail rail_electric rail_fast ship" speed="17.88" length="0.10" shape="754.34,930.03 754.34,930.03"/>
    </edge>
    <edge id=":1715694385_2" function="internal">
        <lane id=":1715694385_2_0" index="0" disallow="tram rail_urban rail rail_electric rail_fast ship" speed="17.88" length="0.10" shape="750.23,925.12 750.23,925.12"/>
        <lane id=":1715694385_2_1" index="1" disallow="tram rail_urban rail rail_electric rail_fast ship" speed="17.88" length="0.10" shape="752.28,927.57 752.28,927.57"/>
    </edge>
    <edge id=":1817066899_0" function="internal">
        <lane id=":1817066899_0_0" index="0" disallow="tram rail_urban rail rail_electric rail_fast ship" speed="3.65" length="4.67" shape="1639.48,614.68 1640.92,614.62 1641.71,615.03 1641.86,615.91 1641.36,617.26"/>
    </edge>
    <edge id=":2003213676_0" function="internal">
        <lane id=":2003213676_0_0" index="0" disallow="tram rail_urban rail rail_electric rail_fast ship" speed="3.65" length="4.67" shape="659.87,1062.76 658.67,1063.57 657.78,1063.63 657.19,1062.95 656.91,1061.54"/>
    </edge>
    <edge id=":2405450277_0" function="internal">
        <lane id=":2405450277_0_0" index="0" disallow="tram rail_urban rail rail_electric rail_fast ship" speed="6.54" length="7.51" shape="608.00,829.68 609.56,831.27 611.17,832.17 612.83,832.38 614.53,831.90"/>
    </edge>
    <edge id=":2405450277_1" function="internal">
        <lane id=":2405450277_1_0" index="0" disallow="tram rail_urban rail rail_electric rail_fast ship" speed="13.89" length="10.10" shape="608.00,829.68 609.83,832.04 610.94,833.77 611.77,835.66 612.75,838.48"/>
    </edge>
    <edge id=":2405450277_2" function="internal">
        <lane id=":2405450277_2_0" index="0" disallow="tram rail_urban rail rail_electric rail_fast ship" speed="22.22" length="8.19" shape="607.40,835.91 609.45,834.59 610.87,833.73 612.34,832.96 614.53,831.90"/>
    </edge>
    <edge id=":2405450277_3" function="internal">
        <lane id=":2405450277_3_0" index="0" disallow="tram rail_urban rail rail_electric rail_fast ship" speed="5.47" length="7.21" shape="607.40,835.91 609.12,835.18 610.58,835.37 611.79,836.47 612.75,838.48"/>
    </edge>
    <edge id=":2407164320_0" function="internal">
        <lane id=":2407164320_0_0" index="0" allow="pedestrian delivery bicycle" speed="5.01" length="5.20" shape="1084.48,497.31 1083.23,496.48 1082.03,496.10 1080.85,496.19 1079.71,496.73"/>
    </edge>
    <edge id=":2407164320_1" function="internal">