<?xml version="1.0" encoding="UTF-8"?>

<!-- generated on 2021-10-06 16:27:52 by Eclipse SUMO netedit Version 1.10.0
<configuration xmlns:xsi="http://www.w3.org/2001/XMLSchema-instance" xsi:noNamespaceSchemaLocation="http://sumo.dlr.de/xsd/netconvertConfiguration.xsd">

    <input>
        <sumo-net-file value="Map/Campus/Campus.net.xml"/>
    </input>

    <output>
        <output-file value="Map/Campus/Campus.net.xml"/>
    </output>

    <processing>
        <geometry.min-radius.fix.railways value="false"/>
        <geometry.max-grade.fix value="false"/>
        <offset.disable-normalization value="true"/>
        <lefthand value="false"/>
    </processing>

    <junctions>
        <no-turnarounds value="true"/>
        <junctions.corner-detail value="5"/>
        <junctions.limit-turn-speed value="5.5"/>
        <rectangular-lane-cut value="false"/>
    </junctions>

    <pedestrian>
        <walkingareas value="false"/>
    </pedestrian>

    <report>
        <aggregate-warnings value="5"/>
    </report>

</configuration>
-->

<net version="1.9" junctionCornerDetail="5" limitTurnSpeed="5.50" xmlns:xsi="http://www.w3.org/2001/XMLSchema-instance" xsi:noNamespaceSchemaLocation="http://sumo.dlr.de/xsd/net_file.xsd">

    <location netOffset="-494225.46,-3228441.43" convBoundary="0.00,0.00,1657.17,1219.86" origBoundary="-81.059398,29.183689,-81.042348,29.195629" projParameter="+proj=utm +zone=17 +ellps=WGS84 +datum=WGS84 +units=m +no_defs"/>

    <type id="highway.bridleway" priority="1" numLanes="1" speed="2.78" allow="pedestrian" oneway="1" width="2.00"/>
    <type id="highway.bus_guideway" priority="1" numLanes="1" speed="27.78" allow="bus" oneway="1"/>
    <type id="highway.cycleway" priority="1" numLanes="1" speed="8.33" allow="bicycle" oneway="1" width="1.00"/>
    <type id="highway.footway" priority="1" numLanes="1" speed="2.78" allow="pedestrian" oneway="1" width="2.00"/>
    <type id="highway.ford" priority="1" numLanes="1" speed="2.78" allow="army" oneway="1"/>
    <type id="highway.living_street" priority="2" numLanes="1" speed="2.78" disallow="tram rail_urban rail rail_electric rail_fast ship" oneway="1"/>
    <type id="highway.motorway" priority="14" numLanes="2" speed="39.44" allow="private emergency authority army vip passenger hov taxi bus coach delivery truck trailer motorcycle evehicle custom1 custom2" oneway="1"/>
    <type id="highway.motorway_link" priority="9" numLanes="1" speed="22.22" allow="private emergency authority army vip passenger hov taxi bus coach delivery truck trailer motorcycle evehicle custom1 custom2" oneway="1"/>
    <type id="highway.path" priority="1" numLanes="1" speed="2.78" allow="pedestrian bicycle" oneway="1" width="2.00"/>
    <type id="highway.pedestrian" priority="1" numLanes="1" speed="2.78" allow="pedestrian" oneway="1" width="2.00"/>
    <type id="highway.primary" priority="12" numLanes="2" speed="27.78" disallow="tram rail_urban rail rail_electric rail_fast ship" oneway="1"/>
    <type id="highway.primary_link" priority="7" numLanes="1" speed="22.22" disallow="tram rail_urban rail rail_electric rail_fast ship" oneway="1"/>
    <type id="highway.raceway" priority="15" numLanes="2" speed="83.33" allow="vip" oneway="1"/>
    <type id="highway.residential" priority="3" numLanes="1" speed="13.89" disallow="tram rail_urban rail rail_electric rail_fast ship" oneway="1"/>
    <type id="highway.secondary" priority="11" numLanes="1" speed="27.78" disallow="tram rail_urban rail rail_electric rail_fast ship" oneway="1"/>
    <type id="highway.secondary_link" priority="6" numLanes="1" speed="22.22" disallow="tram rail_urban rail rail_electric rail_fast ship" oneway="1"/>
    <type id="highway.service" priority="1" numLanes="1" speed="5.56" allow="private emergency authority army vip passenger hov taxi bus coach delivery truck trailer motorcycle evehicle" oneway="1"/>
    <type id="highway.stairs" priority="1" numLanes="1" speed="1.39" allow="pedestrian" oneway="1" width="2.00"/>
    <type id="highway.step" priority="1" numLanes="1" speed="1.39" allow="pedestrian" oneway="1" width="2.00"/>
    <type id="highway.steps" priority="1" numLanes="1" speed="1.39" allow="pedestrian" oneway="1" width="2.00"/>
    <type id="highway.tertiary" priority="10" numLanes="1" speed="22.22" disallow="tram rail_urban rail rail_electric rail_fast ship" oneway="1"/>
    <type id="highway.tertiary_link" priority="5" numLanes="1" speed="22.22" disallow="tram rail_urban rail rail_electric rail_fast ship" oneway="1"/>
    <type id="highway.track" priority="1" numLanes="1" speed="5.56" allow="pedestrian motorcycle moped bicycle" oneway="1"/>
    <type id="highway.trunk" priority="13" numLanes="2" speed="27.78" disallow="pedestrian bicycle tram rail_urban rail rail_electric rail_fast ship" oneway="1"/>
    <type id="highway.trunk_link" priority="8" numLanes="1" speed="22.22" disallow="pedestrian bicycle tram rail_urban rail rail_electric rail_fast ship" oneway="1"/>
    <type id="highway.unclassified" priority="4" numLanes="1" speed="13.89" disallow="tram rail_urban rail rail_electric rail_fast ship" oneway="1"/>
    <type id="highway.unsurfaced" priority="1" numLanes="1" speed="8.33" disallow="tram rail_urban rail rail_electric rail_fast ship" oneway="1"/>
    <type id="railway.highspeed" priority="21" numLanes="1" speed="69.44" allow="rail_fast" oneway="1"/>
    <type id="railway.light_rail" priority="19" numLanes="1" speed="27.78" allow="rail_urban" oneway="1"/>
    <type id="railway.preserved" priority="16" numLanes="1" speed="27.78" allow="rail" oneway="1"/>
    <type id="railway.rail" priority="20" numLanes="1" speed="44.44" allow="rail" oneway="1"/>
    <type id="railway.subway" priority="18" numLanes="1" speed="27.78" allow="rail_urban" oneway="1"/>
    <type id="railway.tram" priority="17" numLanes="1" speed="13.89" allow="tram" oneway="1"/>

    <edge id=":101023386_0" function="internal">
        <lane id=":101023386_0_0" index="0" disallow="tram rail_urban rail rail_electric rail_fast ship" speed="17.88" length="16.35" shape="858.23,861.18 844.71,870.47"/>
        <lane id=":101023386_0_1" index="1" disallow="tram rail_urban rail rail_electric rail_fast ship" speed="17.88" length="16.35" shape="856.37,858.57 842.94,867.81"/>
    </edge>
    <edge id=":101023386_2" function="internal">
        <lane id=":101023386_2_0" index="0" disallow="tram rail_urban rail rail_electric rail_fast ship" speed="3.65" length="2.34" shape="856.37,858.57 854.93,858.62 854.14,858.20"/>
    </edge>
    <edge id=":101023386_6" function="internal">
        <lane id=":101023386_6_0" index="0" disallow="tram rail_urban rail rail_electric rail_fast ship" speed="3.65" length="2.34" shape="854.14,858.20 854.00,857.32 854.51,855.97"/>
    </edge>
    <edge id=":101023386_3" function="internal">
        <lane id=":101023386_3_0" index="0" disallow="tram rail_urban rail rail_electric rail_fast ship" speed="17.88" length="16.14" shape="839.40,862.47 852.65,853.36"/>
        <lane id=":101023386_3_1" index="1" disallow="tram rail_urban rail rail_electric rail_fast ship" speed="17.88" length="16.14" shape="841.17,865.14 854.51,855.97"/>
    </edge>
    <edge id=":101023386_5" function="internal">
        <lane id=":101023386_5_0" index="0" disallow="tram rail_urban rail rail_electric rail_fast ship" speed="3.65" length="2.34" shape="841.17,865.14 842.61,865.14 843.39,865.59"/>
    </edge>
    <edge id=":101023386_7" function="internal">
        <lane id=":101023386_7_0" index="0" disallow="tram rail_urban rail rail_electric rail_fast ship" speed="3.65" length="2.34" shape="843.39,865.59 843.50,866.48 842.94,867.81"/>
    </edge>
    <edge id=":101027936_0" function="internal">
        <lane id=":101027936_0_0" index="0" allow="private emergency authority army vip passenger hov taxi bus coach delivery truck trailer motorcycle evehicle" speed="5.99" length="8.35" shape="1230.26,599.55 1228.79,601.10 1228.34,602.80 1228.91,604.64 1230.50,606.62"/>
    </edge>
    <edge id=":101027936_1" function="internal">
        <lane id=":101027936_1_0" index="0" disallow="tram rail_urban rail rail_electric rail_fast ship" speed="17.88" length="12.75" shape="1230.26,599.55 1219.97,607.13"/>
        <lane id=":101027936_1_1" index="1" disallow="tram rail_urban rail rail_electric rail_fast ship" speed="17.88" length="12.75" shape="1228.34,596.99 1218.09,604.54"/>
    </edge>
    <edge id=":101027936_3" function="internal">
        <lane id=":101027936_3_0" index="0" disallow="tram rail_urban rail rail_electric rail_fast ship" speed="3.65" length="2.34" shape="1228.34,596.99 1226.90,597.07 1226.10,596.67"/>
    </edge>
    <edge id=":101027936_11" function="internal">
        <lane id=":101027936_11_0" index="0" disallow="tram rail_urban rail rail_electric rail_fast ship" speed="3.65" length="2.34" shape="1226.10,596.67 1225.93,595.79 1226.41,594.43"/>
    </edge>
    <edge id=":101027936_4" function="internal">
        <lane id=":101027936_4_0" index="0" allow="private emergency authority army vip passenger hov taxi bus coach delivery truck trailer motorcycle evehicle" speed="7.57" length="10.72" shape="1214.72,591.85 1217.01,593.36 1219.40,593.86 1221.89,593.37 1224.49,591.87"/>
    </edge>
    <edge id=":101027936_5" function="internal">
        <lane id=":101027936_5_0" index="0" allow="private emergency authority army vip passenger hov taxi bus coach delivery truck trailer motorcycle evehicle" speed="4.47" length="21.61" shape="1214.72,591.85 1230.50,606.62"/>
    </edge>
    <edge id=":101027936_6" function="internal">
        <lane id=":101027936_6_0" index="0" allow="private emergency authority army vip passenger hov taxi bus coach delivery truck trailer motorcycle evehicle" speed="7.74" length="15.35" shape="1214.72,591.85 1218.43,595.78 1220.23,599.20 1220.12,602.12 1218.09,604.54"/>
    </edge>
    <edge id=":101027936_7" function="internal">
        <lane id=":101027936_7_0" index="0" disallow="tram rail_urban rail rail_electric rail_fast ship" speed="17.88" length="12.64" shape="1214.33,599.36 1224.49,591.87"/>
        <lane id=":101027936_7_1" index="1" disallow="tram rail_urban rail rail_electric rail_fast ship" speed="17.88" length="12.64" shape="1216.21,601.95 1226.41,594.43"/>
    </edge>
    <edge id=":101027936_9" function="internal">
        <lane id=":101027936_9_0" index="0" allow="private emergency authority army vip passenger hov taxi bus coach delivery truck trailer motorcycle evehicle" speed="9.11" length="4.38" shape="1216.21,601.95 1219.16,600.75 1220.35,600.89"/>
    </edge>
    <edge id=":101027936_10" function="internal">
        <lane id=":101027936_10_0" index="0" disallow="tram rail_urban rail rail_electric rail_fast ship" speed="3.65" length="2.34" shape="1216.21,601.95 1217.65,601.89 1218.45,602.30"/>
    </edge>
    <edge id=":101027936_12" function="internal">
        <lane id=":101027936_12_0" index="0" allow="private emergency authority army vip passenger hov taxi bus coach delivery truck trailer motorcycle evehicle" speed="9.11" length="11.93" shape="1220.35,600.89 1222.52,601.13 1226.30,603.09 1230.50,606.62"/>
    </edge>
    <edge id=":101027936_13" function="internal">
        <lane id=":101027936_13_0" index="0" disallow="tram rail_urban rail rail_electric rail_fast ship" speed="3.65" length="2.34" shape="1218.45,602.30 1218.59,603.19 1218.09,604.54"/>
    </edge>
    <edge id=":1423875783_0" function="internal">
        <lane id=":1423875783_0_0" index="0" disallow="tram rail_urban rail rail_electric rail_fast ship" speed="6.65" length="9.30" shape="1462.18,442.13 1460.40,440.31 1458.46,439.48 1456.36,439.63 1454.10,440.78"/>
    </edge>
    <edge id=":1423875783_1" function="internal">
        <lane id=":1423875783_1_0" index="0" disallow="tram rail_urban rail rail_electric rail_fast ship" speed="13.89" length="20.95" shape="1462.18,442.13 1449.95,425.12"/>
    </edge>
    <edge id=":1423875783_2" function="internal">
        <lane id=":1423875783_2_0" index="0" disallow="tram rail_urban rail rail_electric rail_fast ship" speed="8.77" length="7.88" shape="1462.18,442.13 1459.57,437.63 1459.03,435.00"/>
    </edge>
    <edge id=":1423875783_3" function="internal">
        <lane id=":1423875783_3_0" index="0" disallow="tram rail_urban rail rail_electric rail_fast ship" speed="3.65" length="2.34" shape="1462.18,442.13 1462.11,440.69 1462.52,439.89"/>
    </edge>
    <edge id=":1423875783_18" function="internal">
        <lane id=":1423875783_18_0" index="0" disallow="tram rail_urban rail rail_electric rail_fast ship" speed="8.77" length="9.11" shape="1459.03,435.00 1458.74,433.62 1459.68,430.11 1462.39,427.09"/>
    </edge>
    <edge id=":1423875783_19" function="internal">
        <lane id=":1423875783_19_0" index="0" disallow="tram rail_urban rail rail_electric rail_fast ship" speed="3.65" length="2.34" shape="1462.52,439.89 1463.40,439.74 1464.76,440.23"/>
    </edge>
    <edge id=":1423875783_4" function="internal">
        <lane id=":1423875783_4_0" index="0" disallow="tram rail_urban rail rail_electric rail_fast ship" speed="6.55" length="9.02" shape="1466.00,432.38 1464.25,434.17 1463.45,436.07 1463.62,438.09 1464.76,440.23"/>
    </edge>
    <edge id=":1423875783_5" function="internal">
        <lane id=":1423875783_5_0" index="0" disallow="tram rail_urban rail rail_electric rail_fast ship" speed="19.00" length="14.59" shape="1466.00,432.38 1454.10,440.78"/>
        <lane id=":1423875783_5_1" index="1" disallow="tram rail_urban rail rail_electric rail_fast ship" speed="19.00" length="14.59" shape="1464.20,429.74 1452.26,438.16"/>
    </edge>
    <edge id=":1423875783_7" function="internal">
        <lane id=":1423875783_7_0" index="0" disallow="tram rail_urban rail rail_electric rail_fast ship" speed="8.60" length="5.59" shape="1464.20,429.74 1460.63,431.51 1459.02,431.43"/>
    </edge>
    <edge id=":1423875783_8" function="internal">
        <lane id=":1423875783_8_0" index="0" disallow="tram rail_urban rail rail_electric rail_fast ship" speed="3.65" length="2.34" shape="1464.20,429.74 1462.75,429.75 1461.97,429.32"/>
    </edge>
    <edge id=":1423875783_20" function="internal">
        <lane id=":1423875783_20_0" index="0" disallow="tram rail_urban rail rail_electric rail_fast ship" speed="8.60" length="11.52" shape="1459.02,431.43 1457.06,431.33 1453.50,429.20 1449.95,425.12"/>
    </edge>
    <edge id=":1423875783_21" function="internal">
        <lane id=":1423875783_21_0" index="0" disallow="tram rail_urban rail rail_electric rail_fast ship" speed="3.65" length="2.34" shape="1461.97,429.32 1461.85,428.43 1462.39,427.09"/>
    </edge>
    <edge id=":1423875783_9" function="internal">
        <lane id=":1423875783_9_0" index="0" disallow="tram rail_urban rail rail_electric rail_fast ship" speed="6.51" length="9.33" shape="1452.57,423.28 1454.32,425.14 1456.24,425.95 1458.33,425.72 1460.58,424.44"/>
    </edge>
    <edge id=":1423875783_10" function="internal">
        <lane id=":1423875783_10_0" index="0" disallow="tram rail_urban rail rail_electric rail_fast ship" speed="13.89" length="20.88" shape="1452.57,423.28 1464.76,440.23"/>
    </edge>
    <edge id=":1423875783_11" function="internal">
        <lane id=":1423875783_11_0" index="0" disallow="tram rail_urban rail rail_electric rail_fast ship" speed="8.67" length="7.69" shape="1452.57,423.28 1455.14,427.89 1455.61,430.25"/>
    </edge>
    <edge id=":1423875783_12" function="internal">
        <lane id=":1423875783_12_0" index="0" disallow="tram rail_urban rail rail_electric rail_fast ship" speed="3.65" length="2.34" shape="1452.57,423.28 1452.60,424.72 1452.18,425.51"/>
    </edge>
    <edge id=":1423875783_22" function="internal">
        <lane id=":1423875783_22_0" index="0" disallow="tram rail_urban rail rail_electric rail_fast ship" speed="8.67" length="9.17" shape="1455.61,430.25 1455.94,431.91 1454.98,435.33 1452.26,438.16"/>
    </edge>
    <edge id=":1423875783_23" function="internal">
        <lane id=":1423875783_23_0" index="0" disallow="tram rail_urban rail rail_electric rail_fast ship" speed="3.65" length="2.34" shape="1452.18,425.51 1451.29,425.64 1449.95,425.12"/>
    </edge>
    <edge id=":1423875783_13" function="internal">
        <lane id=":1423875783_13_0" index="0" disallow="tram rail_urban rail rail_electric rail_fast ship" speed="6.51" length="9.03" shape="1448.58,432.92 1450.39,431.22 1451.22,429.36 1451.07,427.33 1449.95,425.12"/>
    </edge>
    <edge id=":1423875783_14" function="internal">
        <lane id=":1423875783_14_0" index="0" disallow="tram rail_urban rail rail_electric rail_fast ship" speed="19.00" length="14.67" shape="1448.58,432.92 1460.58,424.44"/>
        <lane id=":1423875783_14_1" index="1" disallow="tram rail_urban rail rail_electric rail_fast ship" speed="19.00" length="14.67" shape="1450.42,435.54 1462.39,427.09"/>
    </edge>
    <edge id=":1423875783_16" function="internal">
        <lane id=":1423875783_16_0" index="0" disallow="tram rail_urban rail rail_electric rail_fast ship" speed="8.78" length="5.25" shape="1450.42,435.54 1454.01,433.94 1455.33,434.04"/>
    </edge>
    <edge id=":1423875783_17" function="internal">
        <lane id=":1423875783_17_0" index="0" disallow="tram rail_urban rail rail_electric rail_fast ship" speed="3.65" length="2.34" shape="1450.42,435.54 1451.86,435.50 1452.65,435.93"/>
    </edge>
    <edge id=":1423875783_24" function="internal">
        <lane id=":1423875783_24_0" index="0" disallow="tram rail_urban rail rail_electric rail_fast ship" speed="8.78" length="11.75" shape="1455.33,434.04 1457.60,434.19 1461.18,436.29 1464.76,440.23"/>
    </edge>
    <edge id=":1423875783_25" function="internal">
        <lane id=":1423875783_25_0" index="0" disallow="tram rail_urban rail rail_electric rail_fast ship" speed="3.65" length="2.34" shape="1452.65,435.93 1452.78,436.81 1452.26,438.16"/>
    </edge>
    <edge id=":1715694380_0" function="internal">
        <lane id=":1715694380_0_0" index="0" disallow="tram rail_urban rail rail_electric rail_fast ship" speed="17.88" length="0.25" shape="1001.35,759.14 1001.16,759.27"/>
        <lane id=":1715694380_0_1" index="1" disallow="tram rail_urban rail rail_electric rail_fast ship" speed="17.88" length="0.25" shape="999.52,756.51 999.30,756.67"/>
    </edge>
    <edge id=":1715694380_2" function="internal">
        <lane id=":1715694380_2_0" index="0" disallow="tram rail_urban rail rail_electric rail_fast ship" speed="17.88" length="0.33" shape="995.58,751.46 995.87,751.25"/>
        <lane id=":1715694380_2_1" index="1" disallow="tram rail_urban rail rail_electric rail_fast ship" speed="17.88" length="0.33" shape="997.44,754.06 997.70,753.88"/>
    </edge>
    <edge id=":1715694384_0" function="internal">
        <lane id=":1715694384_0_0" index="0" disallow="tram rail_urban rail rail_electric rail_fast ship" speed="17.88" length="14.07" shape="823.25,884.59 811.60,892.41"/>
        <lane id=":1715694384_0_1" index="1" disallow="tram rail_urban rail rail_electric rail_fast ship" speed="17.88" length="14.07" shape="821.51,881.91 809.79,889.77"/>
    </edge>
    <edge id=":1715694384_2" function="internal">
        <lane id=":1715694384_2_0" index="0" disallow="tram rail_urban rail rail_electric rail_fast ship" speed="3.65" length="2.34" shape="821.51,881.91 820.07,881.89 819.29,881.44"/>
    </edge>
    <edge id=":1715694384_6" function="internal">
        <lane id=":1715694384_6_0" index="0" disallow="tram rail_urban rail rail_electric rail_fast ship" speed="3.65" length="2.34" shape="819.29,881.44 819.19,880.55 819.76,879.23"/>
    </edge>
    <edge id=":1715694384_3" function="internal">
        <lane id=":1715694384_3_0" index="0" disallow="tram rail_urban rail rail_electric rail_fast ship" speed="17.88" length="14.21" shape="806.18,884.48 818.02,876.55"/>
        <lane id=":1715694384_3_1" index="1" disallow="tram rail_urban rail rail_electric rail_fast ship" speed="17.88" length="14.21" shape="807.99,887.12 819.76,879.23"/>
    </edge>
    <edge id=":1715694384_5" function="internal">
        <lane id=":1715694384_5_0" index="0" disallow="tram rail_urban rail rail_electric rail_fast ship" speed="3.65" length="2.34" shape="807.99,887.12 809.43,887.11 810.21,887.54"/>
    </edge>
    <edge id=":1715694384_7" function="internal">
        <lane id=":1715694384_7_0" index="0" disallow="tram rail_urban rail rail_electric rail_fast ship" speed="3.65" length="2.34" shape="810.21,887.54 810.33,888.43 809.79,889.77"/>
    </edge>
    <edge id=":1715694385_0" function="internal">
        <lane id=":1715694385_0_0" index="0" disallow="tram rail_urban rail rail_electric rail_fast ship" speed="17.88" length="0.10" shape="756.39,932.48 756.39,932.48"/>
        <lane id=":1715694385_0_1" index="1" disallow="tram rail_urban rail rail_electric rail_fast ship" speed="17.88" length="0.10" shape="754.34,930.03 754.34,930.03"/>
    </edge>
    <edge id=":1715694385_2" function="internal">
        <lane id=":1715694385_2_0" index="0" disallow="tram rail_urban rail rail_electric rail_fast ship" speed="17.88" length="0.10" shape="750.23,925.12 750.23,925.12"/>
        <lane id=":1715694385_2_1" index="1" disallow="tram rail_urban rail rail_electric rail_fast ship" speed="17.88" length="0.10" shape="752.28,927.57 752.28,927.57"/>
    </edge>
    <edge id=":2003213676_0" function="internal">
        <lane id=":2003213676_0_0" index="0" disallow="tram rail_urban rail rail_electric rail_fast ship" speed="3.65" length="4.67" shape="659.87,1062.76 658.67,1063.57 657.78,1063.63 657.19,1062.95 656.91,1061.54"/>
    </edge>
    <edge id=":2405450277_0" function="internal">
        <lane id=":2405450277_0_0" index="0" disallow="tram rail_urban rail rail_electric rail_fast ship" speed="6.54" length="7.51" shape="608.00,829.68 609.56,831.27 611.17,832.17 612.83,832.38 614.53,831.90"/>
    </edge>
    <edge id=":2405450277_1" function="internal">
        <lane id=":2405450277_1_0" index="0" disallow="tram rail_urban rail rail_electric rail_fast ship" speed="13.89" length="10.10" shape="608.00,829.68 609.83,832.04 610.94,833.77 611.77,835.66 612.75,838.48"/>
    </edge>
    <edge id=":2405450277_2" function="internal">
        <lane id=":2405450277_2_0" index="0" disallow="tram rail_urban rail rail_electric rail_fast ship" speed="22.22" length="8.19" shape="607.40,835.91 609.45,834.59 610.87,833.73 612.34,832.96 614.53,831.90"/>
    </edge>
    <edge id=":2405450277_3" function="internal">
        <lane id=":2405450277_3_0" index="0" disallow="tram rail_urban rail rail_electric rail_fast ship" speed="5.47" length="7.21" shape="607.40,835.91 609.12,835.18 610.58,835.37 611.79,836.47 612.75,838.48"/>
    </edge>
    <edge id=":2407164320_0" function="internal">
        <lane id=":2407164320_0_0" index="0" allow="private emergency authority army vip passenger hov taxi bus coach delivery truck trailer motorcycle evehicle" speed="5.01" length="7.26" shape="1085.11,497.85 1083.51,496.83 1081.86,496.46 1080.17,496.72 1078.43,497.62"/>
    </edge>
    <edge id=":2407164320_1" function="internal">
        <lane id=":2407164320_1_0" index="0" allow="private emergency authority army vip passenger hov taxi bus coach delivery truck trailer motorcycle evehicle" speed="5.01" length="10.06" shape="1085.11,497.85 1082.93,495.53 1082.08,493.39 1082.56,491.42 1084.37,489.62"/>
    </edge>
    <edge id=":2407164320_2" function="internal">
        <lane id=":2407164320_2_0" index="0" allow="private emergency authority army vip passenger hov taxi bus coach delivery truck trailer motorcycle evehicle" speed="5.56" length="9.44" shape="1086.19,492.25 1078.43,497.62"/>
    </edge>
    <edge id=":2407164320_3" function="internal">
        <lane id=":2407164320_3_0" index="0" allow="private emergency authority army vip passenger hov taxi bus coach delivery truck trailer motorcycle evehicle" speed="3.65" length="4.67" shape="1086.19,492.25 1084.75,492.27 1083.97,491.84 1083.84,490.96 1084.37,489.62"/>
    </edge>
    <edge id=":2407164320_4" function="internal">
        <lane id=":2407164320_4_0" index="0" allow="private emergency authority army vip passenger hov taxi bus coach delivery truck trailer motorcycle evehicle" speed="5.56" length="9.44" shape="1076.61,494.99 1084.37,489.62"/>
    </edge>
    <edge id=":2407164320_5" function="internal">
        <lane id=":2407164320_5_0" index="0" allow="private emergency authority army vip passenger hov taxi bus coach delivery truck trailer motorcycle evehicle" speed="3.65" length="4.67" shape="1076.61,494.99 1078.05,494.96 1078.83,495.39 1078.96,496.28 1078.43,497.62"/>
    </edge>
    <edge id=":2407164362_0" function="internal">
        <lane id=":2407164362_0_0" index="0" allow="private emergency authority army vip passenger hov taxi bus coach delivery truck trailer motorcycle evehicle" speed="4.47" length="11.30" shape="1164.72,568.12 1156.25,560.64"/>
    </edge>
    <edge id=":2407164362_1" function="internal">
        <lane id=":2407164362_1_0" index="0" allow="private emergency authority army vip passenger hov taxi bus coach delivery truck trailer motorcycle evehicle" speed="5.01" length="8.76" shape="1164.72,568.12 1163.22,566.32 1162.72,564.46 1163.24,562.54 1164.78,560.56"/>
    </edge>
    <edge id=":2407164362_2" function="internal">
        <lane id=":2407164362_2_0" index="0" allow="private emergency authority army vip passenger hov taxi bus coach delivery truck trailer motorcycle evehicle" speed="5.01" length="7.78" shape="1157.39,567.13 1158.56,565.76 1158.76,564.23 1157.99,562.52 1156.25,560.64"/>
    </edge>
    <edge id=":2407164362_3" function="internal">
        <lane id=":2407164362_3_0" index="0" allow="private emergency authority army vip passenger hov taxi bus coach delivery truck trailer motorcycle evehicle" speed="5.56" length="9.89" shape="1157.39,567.13 1159.70,565.31 1161.23,564.01 1162.69,562.62 1164.78,560.56"/>
    </edge>
    <edge id=":2407164363_0" function="internal">
        <lane id=":2407164363_0_0" index="0" allow="private emergency authority army vip passenger hov taxi bus coach delivery truck trailer motorcycle evehicle" speed="4.70" length="5.01" shape="1098.74,483.53 1097.90,484.41 1097.71,485.39 1098.17,486.47 1099.28,487.66"/>
    </edge>
    <edge id=":2407164363_1" function="internal">
        <lane id=":2407164363_1_0" index="0" allow="private emergency authority army vip passenger hov taxi bus coach delivery truck trailer motorcycle evehicle" speed="5.56" length="8.09" shape="1098.74,483.53 1092.10,488.16"/>
    </edge>
    <edge id=":2407164363_2" function="internal">
        <lane id=":2407164363_2_0" index="0" allow="private emergency authority army vip passenger hov taxi bus coach delivery truck trailer motorcycle evehicle" speed="3.67" length="4.75" shape="1098.74,483.53 1097.29,483.31 1096.58,482.75 1096.60,481.84 1097.36,480.59"/>
    </edge>
    <edge id=":2407164363_3" function="internal">
        <lane id=":2407164363_3_0" index="0" allow="private emergency authority army vip passenger hov taxi bus coach delivery truck trailer motorcycle evehicle" speed="5.56" length="8.64" shape="1090.28,485.53 1097.36,480.59"/>
    </edge>
    <edge id=":2407164363_4" function="internal">
        <lane id=":2407164363_4_0" index="0" allow="private emergency authority army vip passenger hov taxi bus coach delivery truck trailer motorcycle evehicle" speed="5.01" length="9.96" shape="1090.28,485.53 1092.20,484.73 1094.34,484.81 1096.70,485.79 1099.28,487.66"/>
    </edge>
    <edge id=":2407164363_5" function="internal">
        <lane id=":2407164363_5_0" index="0" allow="private emergency authority army vip passenger hov taxi bus coach delivery truck trailer motorcycle evehicle" speed="3.65" length="4.67" shape="1090.28,485.53 1091.72,485.51 1092.51,485.94 1092.63,486.82 1092.10,488.16"/>
    </edge>
    <edge id=":2407164365_0" function="internal">
        <lane id=":2407164365_0_0" index="0" allow="private emergency authority army vip passenger hov taxi bus coach delivery truck trailer motorcycle evehicle" speed="8.45" length="12.61" shape="1218.29,615.60 1215.82,614.22 1213.05,613.93 1210.00,614.72 1206.65,616.60"/>
    </edge>
    <edge id=":2407164365_1" function="internal">
        <lane id=":2407164365_1_0" index="0" allow="private emergency authority army vip passenger hov taxi bus coach delivery truck trailer motorcycle evehicle" speed="4.47" length="21.97" shape="1218.29,615.60 1201.65,601.26"/>
    </edge>
    <edge id=":2407164365_2" function="internal">
        <lane id=":2407164365_2_0" index="0" allow="private emergency authority army vip passenger hov taxi bus coach delivery truck trailer motorcycle evehicle" speed="7.68" length="15.51" shape="1218.29,615.60 1214.41,611.78 1212.52,608.41 1212.64,605.48 1214.77,602.99"/>
    </edge>
    <edge id=":2407164365_3" function="internal">
        <lane id=":2407164365_3_0" index="0" disallow="tram rail_urban rail rail_electric rail_fast ship" speed="17.88" length="14.53" shape="1218.53,608.18 1206.65,616.60"/>
        <lane id=":2407164365_3_1" index="1" disallow="tram rail_urban rail rail_electric rail_fast ship" speed="17.88" length="14.53" shape="1216.65,605.58 1204.83,613.97"/>
    </edge>
    <edge id=":2407164365_5" function="internal">
        <lane id=":2407164365_5_0" index="0" allow="private emergency authority army vip passenger hov taxi bus coach delivery truck trailer motorcycle evehicle" speed="9.42" length="4.64" shape="1216.65,605.58 1213.60,606.85 1212.26,606.73"/>
    </edge>
    <edge id=":2407164365_6" function="internal">
        <lane id=":2407164365_6_0" index="0" disallow="tram rail_urban rail rail_electric rail_fast ship" speed="3.65" length="2.34" shape="1216.65,605.58 1215.21,605.64 1214.41,605.23"/>
    </edge>
    <edge id=":2407164365_11" function="internal">