<?xml version="1.0" encoding="UTF-8"?>

<!-- generated on 2021-10-24 10:56:23 by Eclipse SUMO GUI Version 1.9.2
-->

<configuration xmlns:xsi="http://www.w3.org/2001/XMLSchema-instance" xsi:noNamespaceSchemaLocation="http://sumo.dlr.de/xsd/sumoConfiguration.xsd">

    <input>
        <net-file value="/Users/kai/Documents/Github/scenic-sumo/Map/Campus/Campus.net.xml"/>
    </input>

</configuration>
