<?xml version="1.0" encoding="UTF-8"?>

<!-- generated on 2021-06-15 17:22:46 by Eclipse SUMO polyconvert Version 1.9.2
<configuration xmlns:xsi="http://www.w3.org/2001/XMLSchema-instance" xsi:noNamespaceSchemaLocation="http://sumo.dlr.de/xsd/polyconvertConfiguration.xsd">

    <input>
        <net-file value="test.net.xml"/>
        <osm-files value="map.osm"/>
        <type-file value="typemap.xml"/>
    </input>

    <output>
        <output-file value="map.poly.xml"/>
    </output>

    <processing>
        <poi-layer-offset value="5"/>
    </processing>

    <report>
        <xml-validation value="never"/>
    </report>

</configuration>
-->

<additional xmlns:xsi="http://www.w3.org/2001/XMLSchema-instance" xsi:noNamespaceSchemaLocation="http://sumo.dlr.de/xsd/additional_file.xsd">
    <location netOffset="-494225.46,-3228441.43" convBoundary="-2267.84,-1785.31,1657.17,1637.12" origBoundary="-81.082706,29.168492,-81.042348,29.199398" projParameter="+proj=utm +zone=17 +ellps=WGS84 +datum=WGS84 +units=m +no_defs"/>

    <poly id="232171090" type="building" color="255,230,230" fill="1" layer="-1.00" shape="776.396736,691.820217 779.011173,690.002041 780.596855,692.261558 786.340843,688.270441 784.813528,686.088454 790.042411,682.463186 791.501628,684.545489 797.653830,680.277213 795.990325,677.906933 807.040997,670.290530 808.607232,672.550060 814.769193,668.337186 813.300232,666.199488 817.916845,663.039837 819.395527,665.177531 825.887946,660.731852 824.175785,658.250795 826.518114,656.654337 824.737860,654.084673 827.041312,652.510391 824.045028,648.168541 821.566631,649.864773 818.385510,645.257096 815.576659,647.175063 813.913138,644.771542 807.828912,648.917905 809.628634,651.531875 804.428863,655.079565 802.940444,652.919718 797.497696,656.633708 799.277961,659.214447 796.226132,661.287636 791.556583,654.520121 794.520933,652.491287 792.565558,649.655797 794.849566,648.092597 791.026375,642.565613 788.713204,644.139906 783.061145,636.076526 785.189631,634.579869 781.084367,628.776025 778.732341,630.427893 774.656268,624.690515 776.551497,623.360150 773.380135,618.896516 771.339118,620.326660 766.883638,614.046558 769.070439,612.505554 765.568310,607.565649 763.624484,608.929276 761.571847,606.038437 759.287854,607.645962 757.410327,605.009874 753.250564,607.980998 754.855692,610.207264 749.811497,613.810307 751.932214,616.756512 749.959244,618.164471 754.307677,624.189786 756.280647,622.781827 759.841107,627.721704 757.916734,629.096402 761.924681,634.656532 763.985120,633.182060 767.837421,638.542830 765.699231,640.072733 769.804454,645.776857 771.767705,644.379984 777.293211,652.055633 775.009234,653.685313 779.386831,659.766023 781.563902,658.225026 783.285751,660.606357 785.939055,658.721690 790.355595,664.946419 787.945257,666.631550 786.476309,664.538173 780.975283,668.351912 782.765262,670.910485 777.060145,674.879428 775.231258,672.276554 769.730244,676.101378 771.315935,678.371973 768.555710,680.289930 770.199757,682.615897 767.828299,684.267776 770.921840,688.664967 773.118354,687.135039 776.396736,691.820217"/>
    <poly id="310921029" type="aeroway" color="grey" fill="1" layer="-2.00" shape="-1988.469926,-1672.685278 -2237.689253,-1785.313029 -2254.340441,-1720.951997 -2267.841078,-1643.098400 -2264.655182,-1565.245446 -2257.308725,-1502.984176 -2242.664082,-1446.943582 -2230.267492,-1393.338868 -2226.074907,-1363.250047 -2002.058898,-1250.449773 -1759.594750,-1141.967183 -1751.219070,-1121.664085 -1744.407305,-1113.691371 -1725.364134,-1107.022980 -1505.493863,-984.083630 -1349.017078,-895.635328 -1206.500405,-814.887654 -1047.488490,-723.090771 -934.991632,-642.410376 -888.556498,-613.896892 -770.281516,-558.778523 -683.521470,-523.196385 -625.086160,-506.632250 -573.965343,-494.717123 -510.999582,-478.487304 -489.877493,-471.873394 -468.744441,-462.943846 -435.196827,-439.274267 -408.055581,-413.340917 -387.184374,-384.811531 -373.763180,-360.244542 -363.688325,-338.645033 -356.891697,-319.968729 -350.615940,-275.344069 -345.526874,-231.571885 -290.987754,31.813030 -254.112426,211.214229 -235.851247,289.680409 -226.671945,347.787347 -223.016254,384.990254 -220.904988,406.416822 -223.634142,467.310974 -226.887217,530.199709 -251.700097,655.676618 -269.204682,793.514418 -260.331396,806.483782 -140.375595,856.234308 60.974029,951.603570 81.330089,968.190448 97.369964,985.488592 109.900649,1003.641619 116.811250,1020.057966 124.647032,1039.775542 134.955271,1065.895836 144.479903,1080.205811 160.654773,1095.764504 181.523397,1107.686853 211.131875,1119.815489 275.287796,1145.211798 323.510006,1028.776689 436.300666,755.725350 443.144800,755.400849 561.935278,749.706566 562.052583,729.807795 507.814649,732.425273 503.504914,705.116383 512.370453,703.029355 498.909240,627.096925 534.325046,538.356292 599.252487,565.803752 624.561479,506.029700 619.378558,503.849384 550.182003,474.764003 564.837153,440.333428 588.961535,383.673176 660.073902,412.913043 680.884650,358.835986 709.051988,340.830421 742.349680,315.687493 740.880645,313.516567 724.371266,289.736259 730.844416,285.290537 728.373352,281.724043 759.893588,260.071983 757.576996,254.023617 756.433530,240.496103 758.059046,222.613147 762.137656,211.631616 780.527038,199.026221 800.548604,205.919986 807.905329,198.604344 818.520149,193.724774 818.101926,170.956675 821.008115,169.027589 827.909104,164.448783 840.166890,159.158582 858.972381,186.793715 863.880661,183.135384 881.848439,207.303045 884.727942,211.168542 892.091839,220.516453 919.471508,200.572843 944.610357,146.416890 1004.084514,173.381450 1036.286548,176.137911 1355.671256,329.427118 1385.921291,339.265093 1422.438002,363.648085 1444.226902,392.357757 1454.140403,409.471765 1493.251806,379.885967 1529.345559,339.731624 1570.400007,278.668637 1586.710653,242.488225 1597.629817,218.286698 1617.420378,152.899620 1623.544599,123.503604 1619.993742,64.174426 1626.756177,-1.728610 1294.843309,-178.885565 1311.514236,-213.138666 1335.103424,-258.994613 1352.679172,-317.456593 1416.743829,-545.806412 1404.347797,-568.813681 1399.654296,-586.982172 1383.251220,-1194.649831 1370.195803,-1236.159445 1351.925280,-1260.538222 1333.142344,-1277.139008 1311.744273,-1292.187621 1300.268031,-1297.889042 1271.581563,-1301.511830 254.818853,-1279.605162 208.003572,-1270.419764 181.406080,-1256.912028 167.333278,-1242.379993 151.174264,-1219.016604 138.022827,-1189.771495 130.859242,-1164.517924 58.947886,-1019.175363 34.451868,-985.437273 10.463492,-967.254919 -18.349917,-953.568321 -48.986221,-949.065577 -96.457416,-951.633877 -1036.019460,-1252.617368 -1108.019679,-1278.522281 -1175.851263,-1308.584064 -1780.755605,-1586.704012 -1828.073986,-1603.457982 -1902.166446,-1625.722444 -1988.469926,-1672.685278"/>
    <poly id="361065419" type="building" color="255,230,230" fill="1" layer="-1.00" shape="533.450487,1047.746172 577.141257,943.656762 584.464568,949.747138 589.485471,938.111417 584.448582,935.964288 598.443041,903.495099 602.245029,905.122058 605.886908,896.677856 611.932061,892.575719 619.349609,892.029475 625.902569,892.946114 625.418029,896.392047 635.053015,897.739401 634.597533,900.952652 638.525413,901.493778 641.597490,879.787723 644.115618,880.141134 646.964311,880.538716 647.836515,874.378141 661.866095,876.355076 656.332403,915.423753 664.470114,916.572373 661.581652,935.896256 650.935505,934.272346 649.956468,940.665637 632.485120,937.992260 636.527343,911.798581 633.902261,911.400901 633.427276,914.481207 617.161475,911.984582 603.050979,945.927369 600.620069,944.931319 599.250777,948.211461 593.037366,945.654922 589.492755,954.154482 591.729193,955.073062 572.432963,1001.261057 574.319343,1002.035761 579.229771,1004.072148 580.472814,1001.113364 614.865216,1015.368128 613.622161,1018.315829 618.260316,1020.241561 616.230654,1025.084205 612.730157,1023.623297 610.049836,1030.006283 573.936370,1014.987833 575.626132,1010.976296 573.448041,1010.068772 570.560127,1008.873505 551.001760,1055.438361 547.209557,1053.855732 545.403276,1058.144313 538.888468,1055.432829 540.830699,1050.811800 533.450487,1047.746172"/>
    <poly id="361065421" type="amenity" color="237,199,199" fill="1" layer="-1.00" shape="944.610357,146.416890 1004.084514,173.381450 1036.286548,176.137911 1355.671256,329.427118 1385.921291,339.265093 1422.438002,363.648085 1444.226902,392.357757 1454.140403,409.471765 1589.035122,563.082549 1482.444185,622.297505 1468.588547,643.752556 1469.377574,673.622487 1490.987986,824.516642 1490.243520,887.337484 1467.167732,949.391169 1409.319915,1018.028269 1324.013858,1074.300572 1191.609765,1137.162448 1129.513099,1150.349947 1094.509632,1160.668146 1057.657506,1167.087242 989.142896,1175.547226 655.700210,1023.260491 643.395123,1050.842811 621.097809,1125.151771 552.861833,1381.373395 544.225955,1395.570153 528.060244,1397.882101 258.548981,1290.006408 299.303274,1191.944546 334.297714,1205.189947 364.330634,1211.213990 395.040240,1209.183018 425.746400,1199.773202 449.350968,1179.952075 463.856936,1161.819306 479.367464,1129.581924 490.825523,1100.360055 458.630555,1086.592136 354.441221,1042.013011 323.510006,1028.776689 436.300666,755.725350 443.144800,755.400849 561.935278,749.706566 562.052583,729.807795 507.814649,732.425273 503.504914,705.116383 512.370453,703.029355 498.909240,627.096925 534.325046,538.356292 599.252487,565.803752 624.561479,506.029700 619.378558,503.849384 550.182003,474.764003 564.837153,440.333428 588.961535,383.673176 660.073902,412.913043 680.884650,358.835986 709.051988,340.830421 742.349680,315.687493 740.880645,313.516567 724.371266,289.736259 730.844416,285.290537 728.373352,281.724043 759.893588,260.071983 757.576996,254.023617 756.433530,240.496103 758.059046,222.613147 762.137656,211.631616 780.527038,199.026221 800.548604,205.919986 807.905329,198.604344 818.520149,193.724774 818.101926,170.956675 821.008115,169.027589 827.909104,164.448783 840.166890,159.158582 858.972381,186.793715 863.880661,183.135384 881.848439,207.303045 884.727942,211.168542 892.091839,220.516453 919.471508,200.572843 944.610357,146.416890"/>
    <poly id="361068895" type="parking" color="184,184,179" fill="1" layer="-1.00" shape="425.373752,798.541515 425.390835,835.015107 434.311582,847.286981 482.969051,866.686636 554.589822,865.634364 555.129944,834.943998 555.253215,828.130070 562.447445,828.126784 561.935278,749.706566 443.144800,755.400849 443.534048,797.846097 425.373752,798.541515"/>
    <poly id="361068913" type="parking" color="184,184,179" fill="1" layer="-1.00" shape="608.878539,804.716938 607.665543,680.749364 619.740289,680.633113 643.748255,711.622641 644.419331,777.124130 650.223326,777.066127 650.447082,799.069844 629.535242,799.278675 629.586212,804.519239 608.878539,804.716938"/>
    <poly id="361068915" type="parking" color="184,184,179" fill="1" layer="-1.00" shape="663.366834,797.435373 663.674044,767.011026 674.854381,767.127902 675.050043,748.093295 666.640473,748.008418 666.883078,725.273249 672.317712,725.326218 679.185253,712.038875 690.354984,710.050673 692.335198,703.125127 777.033663,703.231785 783.196424,723.161044 783.109693,769.406764 812.587505,771.144474 827.802040,792.742829 773.997668,830.248090 753.491032,801.129174 744.234462,798.252587 663.366834,797.435373"/>
    <poly id="361068931" type="building" color="255,230,230" fill="1" layer="-1.00" shape="549.626604,727.099005 549.421727,683.036072 564.782545,682.962578 564.997085,727.025506 549.626604,727.099005"/>
    <poly id="361068944" type="parking" color="184,184,179" fill="1" layer="-1.00" shape="508.635945,658.159250 503.722264,628.357762 538.800930,546.386848 593.041115,568.199732 547.123219,674.073838 508.635945,658.159250"/>
    <poly id="361068946" type="building" color="255,230,230" fill="1" layer="-1.00" shape="600.939400,662.648566 600.853182,644.012949 615.319626,643.951007 615.396098,662.586629 600.939400,662.648566"/>
    <poly id="361068958" type="water" color="181,209,209" fill="1" layer="-4.00" shape="619.642433,571.522613 627.897235,551.487224 630.744673,548.915506 635.129486,549.168360 643.394948,552.765469 646.751518,558.159659 644.692610,563.035546 623.009431,578.467916 619.645569,578.469434 618.876009,575.123784 619.642433,571.522613"/>
    <poly id="361068962" type="building" color="255,230,230" fill="1" layer="-1.00" shape="683.605516,486.603096 700.768419,493.752790 689.735660,519.993858 687.304662,518.986710 678.262894,540.495974 675.997206,539.555231 674.122814,544.010011 688.004429,562.129819 674.650700,572.251322 658.570571,551.240775 663.255065,547.682171 659.665480,542.986086 663.540508,533.777320 661.459574,532.914053 673.958769,503.226590 676.214742,504.167337 683.605516,486.603096"/>
    <poly id="361068964" type="parking" color="184,184,179" fill="1" layer="-1.00" shape="619.689888,590.501709 657.652812,564.292791 668.723729,580.175785 707.930864,553.124440 704.866430,548.727254 690.643538,528.336288 709.581699,482.990723 679.563914,471.182290 660.509502,517.237042 652.049402,513.252227 658.468874,497.837820 649.240728,493.908749 668.605135,445.372042 716.768160,464.950178 756.383834,481.463258 800.277945,499.758405 820.600741,507.527354 812.475139,512.505559 803.094705,515.933191 787.792294,516.693265 783.358468,515.542938 751.308996,503.945713 731.700940,551.706829 678.177939,589.777455 659.662407,601.252975 628.532050,601.023210 619.689888,590.501709"/>
    <poly id="361071048" type="leisure" color="207,245,201" fill="1" layer="-2.00" shape="703.835938,636.454888 729.017983,618.550404 745.332252,641.909795 720.188891,659.293491 703.835938,636.454888"/>
    <poly id="361071048#1" type="sport" color="79,230,125" fill="1" layer="-2.00" shape="703.835938,636.454888 729.017983,618.550404 745.332252,641.909795 720.188891,659.293491 703.835938,636.454888"/>
    <poly id="361071057" type="building" color="255,230,230" fill="1" layer="-1.00" shape="787.711344,531.694890 798.674759,524.322267 800.377232,526.825484 814.946545,517.035984 813.915333,515.518546 824.956534,508.090518 832.544691,519.266408 807.400719,536.173492 805.124273,532.828485 793.694333,540.511530 787.711344,531.694890"/>
    <poly id="361071060" type="building" color="255,230,230" fill="1" layer="-1.00" shape="862.134538,553.965593 900.107525,526.970838 910.963923,542.078594 873.000687,569.084388 862.134538,553.965593"/>
    <poly id="361071063" type="building" color="255,230,230" fill="1" layer="-1.00" shape="845.270451,607.996311 863.183053,595.745789 881.929221,622.871345 861.742338,636.673940 855.778982,628.056686 858.063003,626.493498 845.270451,607.996311"/>
    <poly id="361071063#1" type="leisure" color="207,245,201" fill="1" layer="-2.00" shape="845.270451,607.996311 863.183053,595.745789 881.929221,622.871345 861.742338,636.673940 855.778982,628.056686 858.063003,626.493498 845.270451,607.996311"/>
    <poly id="361071064" type="leisure" color="207,245,201" fill="1" layer="-2.00" shape="897.284567,587.022720 910.300841,605.929809 889.754261,619.931938 880.998913,607.216464 890.212797,600.930466 885.951860,594.749949 897.284567,587.022720"/>
    <poly id="361071065" type="building" color="255,230,230" fill="1" layer="-1.00" shape="884.361707,582.031408 891.923335,576.887304 895.337924,581.838363 887.776302,586.993546 884.361707,582.031408"/>
    <poly id="361071066" type="building" color="255,230,230" fill="1" layer="-1.00" shape="879.764629,585.523408 876.179056,589.945650 880.876461,593.710653 884.452318,589.299496 879.764629,585.523408"/>
    <poly id="361071067" type="building" color="255,230,230" fill="1" layer="-1.00" shape="883.582933,625.097609 892.819596,626.644782 891.520116,634.323404 882.283460,632.776232 883.582933,625.097609"/>
    <poly id="361071073" type="parking" color="184,184,179" fill="1" layer="-1.00" shape="776.002307,434.776893 756.383834,481.463258 800.277945,499.758405 820.600741,507.527354 828.453937,502.106094 830.876095,505.174056 869.393441,477.769025 854.188440,456.525162 787.462514,429.398346 778.866460,425.823437 776.002307,434.776893"/>
    <poly id="361071074" type="parking" color="184,184,179" fill="1" layer="-1.00" shape="756.383834,481.463258 716.768160,464.950178 668.605135,445.372042 691.438212,391.537846 697.821482,381.895878 702.883791,375.101922 709.705655,367.875088 717.850829,363.051915 728.640871,359.102856 757.044995,370.912126 750.228313,389.982870 795.378143,410.991912 787.462514,429.398346 778.866460,425.823437 776.002307,434.776893 756.383834,481.463258"/>
    <poly id="361071075" type="building" color="255,230,230" fill="1" layer="-1.00" shape="582.636961,415.296824 592.542990,391.704158 626.237090,405.704437 616.340732,429.308150 582.636961,415.296824"/>
    <poly id="361071076" type="building" color="255,230,230" fill="1" layer="-1.00" shape="580.762631,419.851334 571.041193,443.045067 604.793507,457.056337 614.515002,433.862632 580.762631,419.851334"/>
    <poly id="361071079" type="parking" color="184,184,179" fill="1" layer="-1.00" shape="639.450801,408.180288 616.034458,461.549515 604.793507,457.056337 571.041193,443.045067 564.837153,440.333428 550.182003,474.764003 619.378558,503.849384 656.847314,415.617877 639.450801,408.180288"/>
    <poly id="361071998" type="water" color="181,209,209" fill="1" layer="-4.00" shape="823.815589,410.414498 845.711673,413.861820 852.430946,416.584470 854.172833,420.295338 851.939058,425.747394 832.043665,439.860137 826.813515,440.848473 820.104832,440.109057 814.872859,436.898285 813.879788,433.674593 814.626041,428.234255 812.883819,423.781069 810.140630,420.314390 809.146270,414.132485 811.127464,409.179105 817.602402,408.932546 823.815589,410.414498"/>
    <poly id="361071999" type="building" color="255,230,230" fill="1" layer="-1.00" shape="785.480778,344.043064 813.054893,325.207056 816.829544,330.678669 825.528475,324.725228 835.986561,339.866320 828.016596,345.320862 826.232043,355.381782 824.544466,364.866529 829.982585,372.575477 819.369022,379.981154 813.833619,372.139300 803.550528,379.323260 784.239769,351.943260 786.970914,350.036400 787.222180,346.568420 785.480778,344.043064"/>
    <poly id="361072000" type="building" color="255,230,230" fill="1" layer="-1.00" shape="828.311198,396.995326 868.083172,369.800262 875.297668,371.038065 872.807052,367.072688 873.408348,363.604559 874.048434,359.903746 877.780640,357.176598 870.070297,355.939007 855.847380,335.359491 857.937071,333.929341 850.689400,323.451296 856.365585,319.559961 866.069143,321.040435 868.063613,324.263700 874.782296,325.501715 877.513643,324.015896 882.987651,324.755875 905.565751,354.073552 902.280665,356.567831 912.077176,370.944793 909.171028,372.884935 897.682534,380.590058 900.114597,384.067970 877.536149,399.190008 868.166372,405.055063 863.129772,404.004679 860.434781,399.551895 858.187709,396.716521 852.083748,400.530484 844.084923,406.616556 832.270657,402.732772 828.311198,396.995326"/>
    <poly id="361072005" type="building" color="255,230,230" fill="1" layer="-1.00" shape="888.015182,440.888603 921.051541,418.261342 935.274228,438.818783 934.624536,442.829822 934.033033,446.497374 905.448215,466.075848 888.015182,440.888603"/>
    <poly id="361072022" type="building" color="255,230,230" fill="1" layer="-1.00" shape="764.780178,229.268951 783.945388,256.726534 781.214149,258.467202 785.447291,267.373235 787.187172,266.386404 791.915177,273.065253 806.592669,265.380797 810.325108,263.152203 807.834556,259.441668 816.290697,253.997981 814.296095,250.530977 822.256291,244.832683 816.779236,237.168075 810.058130,230.490082 801.597233,225.042670 789.656020,220.350186 782.441526,219.356185 780.700234,217.129976 782.935643,215.400603 779.199512,209.208821 775.465331,207.482059 772.480536,207.483366 769.496284,208.725572 767.757159,211.451880 767.758348,214.166347 771.494265,219.859550 768.510124,221.345504 771.000915,225.554606 764.780178,229.268951"/>
    <poly id="361072023" type="building" color="255,230,230" fill="1" layer="-1.00" shape="872.249608,223.527484 868.766636,218.088966 858.065302,225.261975 855.827651,221.806148 846.127315,227.992665 840.649948,219.585723 837.417598,209.183510 836.908610,201.272999 826.703524,186.918441 830.931196,183.204993 821.008115,169.027589 827.909104,164.448783 840.166890,159.158582 858.972381,186.793715 863.880661,183.135384 881.848439,207.303045 884.727942,211.168542 879.956751,217.087015 872.249608,223.527484"/>
    <poly id="361072026" type="building" color="255,230,230" fill="1" layer="-1.00" shape="924.085020,326.976400 893.595883,281.907077 901.624291,276.530113 895.991462,268.200766 888.167165,273.444693 884.703793,268.316387 884.700933,261.635476 886.934334,255.197356 891.161474,250.254110 896.633718,246.783903 894.882517,244.059104 899.625777,241.043467 910.492951,257.990402 912.563265,256.671066 915.548156,256.924623 916.793469,258.907316 916.298888,261.876821 915.055155,263.605745 937.673459,295.937079 939.695119,294.529132 942.184472,295.525230 943.429879,297.751674 941.933677,300.223025 950.806436,314.301265 946.539440,316.962137 951.929252,325.535360 947.671977,328.185149 942.694341,328.685829 937.220025,327.203498 931.501075,322.009656 924.085020,326.976400"/>
    <poly id="361201158" type="parking" color="184,184,179" fill="1" layer="-1.00" shape="835.968946,276.635866 825.579041,261.915765 759.885389,307.835526 770.275337,322.555568 835.968946,276.635866"/>
    <poly id="361201166" type="parking" color="184,184,179" fill="1" layer="-1.00" shape="1001.573800,214.387562 981.242927,257.827542 970.558305,281.697179 953.924723,285.116659 945.724220,274.417368 921.875944,253.376507 903.610967,238.681843 913.655298,218.313525 940.998797,204.696350 965.839218,203.566842 978.119044,204.403718 1001.573800,214.387562"/>
    <poly id="361201167" type="parking" color="184,184,179" fill="1" layer="-1.00" shape="940.998797,204.696350 935.964282,185.808011 931.782677,183.593892 944.526340,154.660040 969.012600,166.515809 973.415825,187.110664 1025.083840,193.747817 1212.558205,280.877803 1204.816200,297.743830 1021.115837,214.146745 1004.798606,207.084854 1004.225518,208.370310 1001.573800,214.387562 978.119044,204.403718 965.839218,203.566842 940.998797,204.696350"/>
    <poly id="361201182" type="building" color="255,230,230" fill="1" layer="-1.00" shape="1004.927338,259.257957 1019.915039,225.647719 1022.083546,226.610730 1024.405044,221.402420 1031.970498,224.745272 1029.765556,229.687625 1037.272654,232.997266 1022.158626,266.862362 1004.927338,259.257957"/>
    <poly id="361201184" type="building" color="255,230,230" fill="1" layer="-1.00" shape="1054.248544,375.394496 1060.827063,390.493080 1066.897927,400.550724 1071.966560,408.603402 1078.542968,418.671924 1085.128463,427.222561 1092.715651,436.526193 1099.553188,443.326180 1109.668243,452.883618 1113.206215,450.610884 1114.227771,452.372102 1121.557017,449.100673 1126.611052,445.320520 1130.157734,440.543831 1127.112620,435.514995 1130.913103,433.242160 1118.255611,411.609131 1105.853007,395.249834 1098.003196,385.691473 1107.868361,378.397155 1104.580157,373.357346 1109.887105,369.831910 1105.839331,361.789877 1099.264461,355.499435 1096.475077,357.760786 1092.681410,352.987094 1067.652611,368.087602 1056.522839,373.631922 1054.248544,375.394496"/>
    <poly id="361201196" type="parking" color="184,184,179" fill="1" layer="-1.00" shape="1167.304095,362.263496 1133.849400,314.014924 1171.609877,286.877136 1194.831335,297.803226 1206.425573,310.695071 1218.378571,321.226860 1220.907892,325.003946 1167.304095,362.263496"/>
    <poly id="361201201" type="parking" color="184,184,179" fill="1" layer="-1.00" shape="1213.648753,333.682057 1246.577793,381.288463 1255.251538,384.930170 1274.122701,410.006611 1185.848407,468.596670 1179.574435,460.821412 1171.526689,466.464097 1151.125488,480.753760 1138.704011,489.456170 1121.515501,466.517599 1163.513648,437.638578 1130.963853,390.674861 1213.648753,333.682057"/>
    <poly id="361201205" type="parking" color="184,184,179" fill="1" layer="-1.00" shape="1270.559483,373.024786 1284.079649,363.912149 1282.134059,361.054414 1315.978310,338.239631 1338.440027,371.225509 1296.810320,399.283859 1293.580653,394.532038 1287.836292,398.401024 1270.559483,373.024786"/>
    <poly id="361202534" type="building" color="255,230,230" fill="1" layer="-1.00" shape="1209.186350,455.701908 1186.821783,471.465859 1185.560323,477.515751 1162.962427,493.102572 1165.083096,496.137488 1167.105316,496.136672 1173.155997,504.731893 1164.447350,510.806948 1186.898995,542.673514 1194.353820,537.474256 1200.890842,546.756224 1209.424531,540.803140 1214.881768,548.556582 1247.762788,525.631180 1241.507893,516.747934 1249.818076,510.950082 1252.093071,510.949181 1254.386875,509.341751 1247.898552,500.225926 1262.098745,490.204476 1252.011193,476.037837 1257.599921,472.102418 1249.389781,460.560871 1224.925757,477.810228 1209.186350,455.701908"/>
    <poly id="361202536" type="parking" color="184,184,179" fill="1" layer="-1.00" shape="1262.683551,469.319464 1284.055420,500.123018 1320.523339,474.936208 1306.204537,455.320079 1290.006274,452.789231 1284.971515,456.270159 1283.911189,454.741611 1262.683551,469.319464"/>
    <poly id="361202537" type="building" color="255,230,230" fill="1" layer="-1.00" shape="1284.971515,456.270159 1283.911189,454.741611 1269.397495,434.217090 1281.896892,425.470474 1297.500076,447.545708 1290.006274,452.789231 1284.971515,456.270159"/>
    <poly id="361202540" type="building" color="255,230,230" fill="1" layer="-1.00" shape="1348.587979,440.944599 1390.071324,411.579116 1398.261904,423.098611 1395.093296,425.326797 1399.820863,431.961581 1406.323311,427.383276 1408.881645,430.983122 1402.515272,435.461658 1405.423793,439.548865 1364.785477,466.664837 1354.337652,450.803091 1348.587979,440.944599"/>
    <poly id="361202541" type="building" color="255,230,230" fill="1" layer="-1.00" shape="1338.159381,424.639683 1316.524613,392.805744 1333.096804,381.653354 1349.050492,405.124533 1364.543804,394.703850 1370.224853,403.066649 1338.159381,424.639683"/>
    <poly id="361202545" type="parking" color="184,184,179" fill="1" layer="-1.00" shape="1316.524613,392.805744 1279.404837,417.461006 1303.509987,451.520879 1331.058133,489.368640 1345.763999,479.424653 1347.401546,465.209073 1354.337652,450.803091 1348.587979,440.944599 1338.159381,424.639683 1316.524613,392.805744"/>
    <poly id="361202550" type="building" color="255,230,230" fill="1" layer="-1.00" shape="1079.622281,537.277092 1115.284645,588.383119 1097.235543,600.367393 1092.838499,593.920949 1072.700026,607.977978 1066.916407,610.506477 1063.912528,611.128166 1060.208717,611.894177 1052.106484,602.923160 1045.151160,593.253669 1038.670492,579.440266 1047.455875,571.138111 1064.007969,559.664031 1068.051232,556.859260 1063.888817,553.636853 1061.806751,549.948252 1061.339232,547.876586 1061.338281,545.572058 1062.961029,543.499530 1065.760572,542.423668 1070.359508,543.263812 1077.357615,538.740512 1079.622281,537.277092"/>
    <poly id="361202551" type="amenity" color="237,199,199" fill="1" layer="-1.00" shape="1077.357615,538.740512 1073.136260,534.055637 1068.973838,530.833228 1053.460564,538.905477 1049.553463,541.843149 1042.128035,547.430271 1023.158690,567.469811 1032.653437,581.736211 1039.592759,576.215761 1038.434101,572.061443 1050.932790,562.394978 1053.704269,564.000354 1061.490363,560.717618 1064.007969,559.664031 1068.051232,556.859260 1063.888817,553.636853 1061.806751,549.948252 1061.339232,547.876586 1061.338281,545.572058 1062.961029,543.499530 1065.760572,542.423668 1070.359508,543.263812 1077.357615,538.740512"/>
    <poly id="361202556" type="amenity" color="237,199,199" fill="1" layer="-1.00" shape="1063.912528,611.128166 1072.480714,618.414921 1097.235543,600.367393 1092.838499,593.920949 1072.700026,607.977978 1066.916407,610.506477 1063.912528,611.128166"/>
    <poly id="361204655" type="parking" color="184,184,179" fill="1" layer="-1.00" shape="827.802040,792.742829 812.587505,771.144474 783.196424,723.161044 777.033663,703.231785 833.969540,666.622627 852.803279,694.025086 891.028566,667.063425 1007.940945,584.604999 1042.872903,632.276475 1033.785298,638.440424 1048.047415,661.457635 1030.290308,673.796438 1033.802189,679.135281 979.481566,717.182674 969.150374,701.974913 874.145570,767.583546 868.979932,759.985251 833.476086,784.464013 828.879019,787.756604 827.802040,792.742829"/>
    <poly id="361204656" type="leisure" color="207,245,201" fill="1" layer="-2.00" shape="699.448640,652.411262 686.055654,661.491301 680.364534,653.184241 693.747799,644.093121 699.448640,652.411262"/>
    <poly id="361204656#1" type="sport" color="79,230,125" fill="1" layer="-2.00" shape="699.448640,652.411262 686.055654,661.491301 680.364534,653.184241 693.747799,644.093121 699.448640,652.411262"/>
    <poly id="361204666" type="amenity" color="237,199,199" fill="1" layer="-1.00" shape="849.903109,822.348687 844.241570,814.540107 840.499780,817.222953 836.365483,811.507736 840.602940,808.470131 828.521053,791.789684 830.678662,790.248704 828.879019,787.756604 833.476086,784.464013 835.042257,786.623831 844.294706,779.983234 850.335648,788.323464 858.033070,782.802575 860.613370,769.450710 880.360330,773.209249 876.771175,791.813208 862.488435,789.082714 853.867710,795.257687 865.424262,811.218222 849.903109,822.348687"/>
    <poly id="361204666#1" type="building" color="255,230,230" fill="1" layer="-1.00" shape="849.903109,822.348687 844.241570,814.540107 840.499780,817.222953 836.365483,811.507736 840.602940,808.470131 828.521053,791.789684 830.678662,790.248704 828.879019,787.756604 833.476086,784.464013 835.042257,786.623831 844.294706,779.983234 850.335648,788.323464 858.033070,782.802575 860.613370,769.450710 880.360330,773.209249 876.771175,791.813208 862.488435,789.082714 853.867710,795.257687 865.424262,811.218222 849.903109,822.348687"/>