<?xml version="1.0" encoding="UTF-8"?>

<!-- generated on 2021-08-11 19:37:57 by Eclipse SUMO GUI Version 1.9.2
-->

<configuration xmlns:xsi="http://www.w3.org/2001/XMLSchema-instance" xsi:noNamespaceSchemaLocation="http://sumo.dlr.de/xsd/sumoConfiguration.xsd">

    <input>
        <net-file value="OnRamp.net.xml"/>
    </input>

</configuration>
