<?xml version="1.0" encoding="UTF-8"?>

<!-- generated on 2021-09-28 13:44:16 by Eclipse SUMO netedit Version 1.10.0
<configuration xmlns:xsi="http://www.w3.org/2001/XMLSchema-instance" xsi:noNamespaceSchemaLocation="http://sumo.dlr.de/xsd/netconvertConfiguration.xsd">

    <input>
        <sumo-net-file value="/Users/kai/Documents/Github/scenic-sumo/Map/OnRamp/OnRamp.net.xml"/>
    </input>

    <output>
        <output-file value="/Users/kai/Documents/Github/scenic-sumo/Map/OnRamp/OnRamp.net.xml"/>
    </output>

    <processing>
        <geometry.min-radius.fix.railways value="false"/>
        <geometry.max-grade.fix value="false"/>
        <offset.disable-normalization value="true"/>
        <lefthand value="false"/>
    </processing>

    <junctions>
        <no-turnarounds value="true"/>
        <junctions.corner-detail value="5"/>
        <junctions.limit-turn-speed value="5.5"/>
        <rectangular-lane-cut value="false"/>
    </junctions>

    <pedestrian>
        <walkingareas value="false"/>
    </pedestrian>

    <report>
        <aggregate-warnings value="5"/>
    </report>

</configuration>
-->

<net version="1.9" junctionCornerDetail="5" limitTurnSpeed="5.50" xmlns:xsi="http://www.w3.org/2001/XMLSchema-instance" xsi:noNamespaceSchemaLocation="http://sumo.dlr.de/xsd/net_file.xsd">

    <location netOffset="-489418.96,-3226515.79" convBoundary="244.32,4322.80,1123.67,6605.82" origBoundary="-81.119379,29.167222,-81.085490,29.236794" projParameter="+proj=utm +zone=17 +ellps=WGS84 +datum=WGS84 +units=m +no_defs"/>

    <type id="highway.bridleway" priority="1" numLanes="1" speed="2.78" allow="pedestrian" oneway="1" width="2.00"/>
    <type id="highway.bus_guideway" priority="1" numLanes="1" speed="27.78" allow="bus" oneway="1"/>
    <type id="highway.cycleway" priority="1" numLanes="1" speed="8.33" allow="bicycle" oneway="1" width="1.00"/>
    <type id="highway.footway" priority="1" numLanes="1" speed="2.78" allow="pedestrian" oneway="1" width="2.00"/>
    <type id="highway.ford" priority="1" numLanes="1" speed="2.78" allow="army" oneway="1"/>
    <type id="highway.living_street" priority="2" numLanes="1" speed="2.78" disallow="tram rail_urban rail rail_electric rail_fast ship" oneway="1"/>
    <type id="highway.motorway" priority="14" numLanes="2" speed="39.44" allow="private emergency authority army vip passenger hov taxi bus coach delivery truck trailer motorcycle evehicle custom1 custom2" oneway="1"/>
    <type id="highway.motorway_link" priority="9" numLanes="1" speed="22.22" allow="private emergency authority army vip passenger hov taxi bus coach delivery truck trailer motorcycle evehicle custom1 custom2" oneway="1"/>
    <type id="highway.path" priority="1" numLanes="1" speed="2.78" allow="pedestrian bicycle" oneway="1" width="2.00"/>
    <type id="highway.pedestrian" priority="1" numLanes="1" speed="2.78" allow="pedestrian" oneway="1" width="2.00"/>
    <type id="highway.primary" priority="12" numLanes="2" speed="27.78" disallow="tram rail_urban rail rail_electric rail_fast ship" oneway="1"/>
    <type id="highway.primary_link" priority="7" numLanes="1" speed="22.22" disallow="tram rail_urban rail rail_electric rail_fast ship" oneway="1"/>
    <type id="highway.raceway" priority="15" numLanes="2" speed="83.33" allow="vip" oneway="1"/>
    <type id="highway.residential" priority="3" numLanes="1" speed="13.89" disallow="tram rail_urban rail rail_electric rail_fast ship" oneway="1"/>
    <type id="highway.secondary" priority="11" numLanes="1" speed="27.78" disallow="tram rail_urban rail rail_electric rail_fast ship" oneway="1"/>
    <type id="highway.secondary_link" priority="6" numLanes="1" speed="22.22" disallow="tram rail_urban rail rail_electric rail_fast ship" oneway="1"/>
    <type id="highway.service" priority="1" numLanes="1" speed="5.56" allow="pedestrian delivery bicycle" oneway="1"/>
    <type id="highway.stairs" priority="1" numLanes="1" speed="1.39" allow="pedestrian" oneway="1" width="2.00"/>
    <type id="highway.step" priority="1" numLanes="1" speed="1.39" allow="pedestrian" oneway="1" width="2.00"/>
    <type id="highway.steps" priority="1" numLanes="1" speed="1.39" allow="pedestrian" oneway="1" width="2.00"/>
    <type id="highway.tertiary" priority="10" numLanes="1" speed="22.22" disallow="tram rail_urban rail rail_electric rail_fast ship" oneway="1"/>
    <type id="highway.tertiary_link" priority="5" numLanes="1" speed="22.22" disallow="tram rail_urban rail rail_electric rail_fast ship" oneway="1"/>
    <type id="highway.track" priority="1" numLanes="1" speed="5.56" allow="pedestrian motorcycle moped bicycle" oneway="1"/>
    <type id="highway.trunk" priority="13" numLanes="2" speed="27.78" disallow="pedestrian bicycle tram rail_urban rail rail_electric rail_fast ship" oneway="1"/>
    <type id="highway.trunk_link" priority="8" numLanes="1" speed="22.22" disallow="pedestrian bicycle tram rail_urban rail rail_electric rail_fast ship" oneway="1"/>
    <type id="highway.unclassified" priority="4" numLanes="1" speed="13.89" disallow="tram rail_urban rail rail_electric rail_fast ship" oneway="1"/>
    <type id="highway.unsurfaced" priority="1" numLanes="1" speed="8.33" disallow="tram rail_urban rail rail_electric rail_fast ship" oneway="1"/>
    <type id="railway.highspeed" priority="21" numLanes="1" speed="69.44" allow="rail_fast" oneway="1"/>
    <type id="railway.light_rail" priority="19" numLanes="1" speed="27.78" allow="rail_urban" oneway="1"/>
    <type id="railway.preserved" priority="16" numLanes="1" speed="27.78" allow="rail" oneway="1"/>
    <type id="railway.rail" priority="20" numLanes="1" speed="44.44" allow="rail" oneway="1"/>
    <type id="railway.subway" priority="18" numLanes="1" speed="27.78" allow="rail_urban" oneway="1"/>
    <type id="railway.tram" priority="17" numLanes="1" speed="13.89" allow="tram" oneway="1"/>

    <edge id=":101019219_0" function="internal">
        <lane id=":101019219_0_0" index="0" allow="private emergency authority army vip passenger hov taxi bus coach delivery truck trailer motorcycle evehicle custom1 custom2" speed="22.22" length="36.36" shape="832.89,5842.58 832.13,5849.62 831.19,5860.68 830.34,5871.74 829.90,5878.81"/>
    </edge>
    <edge id=":101019219_1" function="internal">
        <lane id=":101019219_1_0" index="0" allow="private emergency authority army vip passenger hov taxi bus coach delivery truck trailer motorcycle evehicle custom1 custom2" speed="22.22" length="36.25" shape="832.89,5842.58 831.88,5848.87 830.15,5858.61 828.01,5869.21 825.72,5878.09"/>
        <lane id=":101019219_1_1" index="1" allow="private emergency authority army vip passenger hov taxi bus coach delivery truck trailer motorcycle evehicle custom1 custom2" speed="22.22" length="36.04" shape="832.89,5842.58 831.40,5848.72 828.63,5858.13 825.43,5868.40 822.67,5877.13"/>
    </edge>
    <edge id=":101019226_0" function="internal">
        <lane id=":101019226_0_0" index="0" allow="private emergency authority army vip passenger hov taxi bus coach delivery truck trailer motorcycle evehicle custom1 custom2" speed="25.00" length="19.58" shape="892.90,6015.34 886.93,6013.00 881.97,6011.89 877.74,6011.41 873.93,6010.98"/>
    </edge>
    <edge id=":101019226_1" function="internal">
        <lane id=":101019226_1_0" index="0" disallow="tram rail_urban rail rail_electric rail_fast ship" speed="27.78" length="19.22" shape="892.90,6015.34 875.61,6006.94"/>
        <lane id=":101019226_1_1" index="1" disallow="tram rail_urban rail rail_electric rail_fast ship" speed="27.78" length="19.22" shape="894.28,6012.46 877.00,6004.05"/>
    </edge>
    <edge id=":101020810_0" function="internal">
        <lane id=":101020810_0_0" index="0" allow="private emergency authority army vip passenger hov taxi bus coach delivery truck trailer motorcycle evehicle custom1 custom2" speed="22.22" length="53.07" shape="334.50,5854.89 348.60,5803.73"/>
    </edge>
    <edge id=":101020810_1" function="internal">
        <lane id=":101020810_1_0" index="0" allow="private emergency authority army vip passenger hov taxi bus coach delivery truck trailer motorcycle evehicle custom1 custom2" speed="22.22" length="52.93" shape="334.50,5854.89 337.19,5846.33 342.25,5831.56 347.83,5815.97 352.11,5804.99"/>
        <lane id=":101020810_1_1" index="1" allow="private emergency authority army vip passenger hov taxi bus coach delivery truck trailer motorcycle evehicle custom1 custom2" speed="22.22" length="52.79" shape="334.50,5854.89 337.65,5846.54 343.71,5832.20 350.31,5817.05 355.04,5806.28"/>
    </edge>
    <edge id=":101020829_0" function="internal">
        <lane id=":101020829_0_0" index="0" disallow="tram rail_urban rail rail_electric rail_fast ship" speed="27.78" length="17.26" shape="384.15,5771.37 368.66,5763.66"/>
        <lane id=":101020829_0_1" index="1" disallow="tram rail_urban rail rail_electric rail_fast ship" speed="27.78" length="17.26" shape="385.55,5768.49 370.13,5760.81"/>
    </edge>
    <edge id=":101020829_2" function="internal">
        <lane id=":101020829_2_0" index="0" allow="private emergency authority army vip passenger hov taxi bus coach delivery truck trailer motorcycle evehicle custom1 custom2" speed="5.81" length="11.86" shape="385.55,5768.49 381.95,5766.34 380.69,5764.52 381.78,5763.04 385.22,5761.89"/>
    </edge>
    <edge id=":101020829_3" function="internal">
        <lane id=":101020829_3_0" index="0" allow="private emergency authority army vip passenger hov taxi bus coach delivery truck trailer motorcycle evehicle custom1 custom2" speed="6.36" length="9.04" shape="370.77,5771.16 371.76,5768.86 371.73,5766.84 370.70,5765.11 368.66,5763.66"/>
    </edge>
    <edge id=":101020829_4" function="internal">
        <lane id=":101020829_4_0" index="0" allow="private emergency authority army vip passenger hov taxi bus coach delivery truck trailer motorcycle evehicle custom1 custom2" speed="21.81" length="17.12" shape="370.77,5771.16 373.64,5766.77 376.06,5764.06 379.02,5761.89 383.52,5759.12"/>
        <lane id=":101020829_4_1" index="1" allow="private emergency authority army vip passenger hov taxi bus coach delivery truck trailer motorcycle evehicle custom1 custom2" speed="12.96" length="17.12" shape="373.50,5772.83 376.45,5768.51 379.39,5765.25 382.31,5763.04 385.22,5761.89"/>
    </edge>
    <edge id=":101020833_0" function="internal">
        <lane id=":101020833_0_0" index="0" allow="private emergency authority army vip passenger hov taxi bus coach delivery truck trailer motorcycle evehicle custom1 custom2" speed="25.64" length="22.56" shape="520.87,5890.97 523.07,5887.53 525.73,5883.39 528.54,5878.05 531.19,5871.01"/>
    </edge>
    <edge id=":101020833_1" function="internal">
        <lane id=":101020833_1_0" index="0" allow="private emergency authority army vip passenger hov taxi bus coach delivery truck trailer motorcycle evehicle custom1 custom2" speed="29.06" length="22.56" shape="524.60,5892.58 531.19,5871.01"/>
        <lane id=":101020833_1_1" index="1" allow="private emergency authority army vip passenger hov taxi bus coach delivery truck trailer motorcycle evehicle custom1 custom2" speed="29.06" length="22.56" shape="527.66,5893.52 534.25,5871.95"/>
        <lane id=":101020833_1_2" index="2" allow="private emergency authority army vip passenger hov taxi bus coach delivery truck trailer motorcycle evehicle custom1 custom2" speed="29.06" length="22.56" shape="530.72,5894.45 537.31,5872.88"/>
    </edge>
    <edge id=":101020862_0" function="internal">
        <lane id=":101020862_0_0" index="0" allow="private emergency authority army vip passenger hov taxi bus coach delivery truck trailer motorcycle evehicle custom1 custom2" speed="25.00" length="19.35" shape="453.74,5805.12 447.87,5802.77 443.00,5801.67 438.82,5801.22 435.02,5800.79"/>
    </edge>
    <edge id=":101020862_1" function="internal">
        <lane id=":101020862_1_0" index="0" disallow="tram rail_urban rail rail_electric rail_fast ship" speed="27.78" length="19.36" shape="453.74,5805.12 436.33,5796.68"/>
        <lane id=":101020862_1_1" index="1" disallow="tram rail_urban rail rail_electric rail_fast ship" speed="27.78" length="19.36" shape="455.16,5802.25 437.72,5793.80"/>
    </edge>
    <edge id=":101035693_0" function="internal">
        <lane id=":101035693_0_0" index="0" disallow="tram rail_urban rail rail_electric rail_fast ship" speed="27.78" length="12.07" shape="786.55,5963.99 775.68,5958.73"/>
        <lane id=":101035693_0_1" index="1" disallow="tram rail_urban rail rail_electric rail_fast ship" speed="27.78" length="12.07" shape="787.94,5961.11 777.09,5955.85"/>
    </edge>
    <edge id=":101035693_2" function="internal">
        <lane id=":101035693_2_0" index="0" allow="private emergency authority army vip passenger hov taxi bus coach delivery truck trailer motorcycle evehicle custom1 custom2" speed="9.55" length="12.72" shape="787.52,5955.97 784.09,5958.04 780.98,5959.18 778.18,5959.41 775.68,5958.73"/>
        <lane id=":101035693_2_1" index="1" allow="private emergency authority army vip passenger hov taxi bus coach delivery truck trailer motorcycle evehicle custom1 custom2" speed="8.24" length="9.31" shape="785.68,5953.36 783.04,5954.99 780.72,5955.96 778.74,5956.24 777.09,5955.85"/>
    </edge>
    <edge id=":101035733_0" function="internal">
        <lane id=":101035733_0_0" index="0" allow="private emergency authority army vip passenger hov taxi bus coach delivery truck trailer motorcycle evehicle custom1 custom2" speed="25.64" length="28.86" shape="595.21,5782.49 593.04,5786.56 590.06,5792.15 586.69,5799.47 583.37,5808.75"/>
    </edge>
    <edge id=":101035733_1" function="internal">
        <lane id=":101035733_1_0" index="0" allow="private emergency authority army vip passenger hov taxi bus coach delivery truck trailer motorcycle evehicle custom1 custom2" speed="29.06" length="28.84" shape="591.67,5781.12 583.37,5808.75"/>
        <lane id=":101035733_1_1" index="1" allow="private emergency authority army vip passenger hov taxi bus coach delivery truck trailer motorcycle evehicle custom1 custom2" speed="29.06" length="28.84" shape="588.61,5780.20 580.31,5807.81"/>
        <lane id=":101035733_1_2" index="2" allow="private emergency authority army vip passenger hov taxi bus coach delivery truck trailer motorcycle evehicle custom1 custom2" speed="29.06" length="28.84" shape="585.54,5779.27 577.25,5806.88"/>
    </edge>
    <edge id=":1021229438_0" function="internal">
        <lane id=":1021229438_0_0" index="0" allow="private emergency authority army vip passenger hov taxi bus coach delivery truck trailer motorcycle evehicle custom1 custom2" speed="23.60" length="34.76" shape="341.83,5756.00 337.71,5751.54 330.43,5745.63 321.92,5739.73 314.12,5735.34"/>
    </edge>
    <edge id=":1021229438_1" function="internal">
        <lane id=":1021229438_1_0" index="0" disallow="tram rail_urban rail rail_electric rail_fast ship" speed="27.78" length="35.04" shape="345.11,5751.54 314.12,5735.34"/>
        <lane id=":1021229438_1_1" index="1" disallow="tram rail_urban rail rail_electric rail_fast ship" speed="27.78" length="35.04" shape="346.58,5748.69 315.46,5732.44"/>
    </edge>
    <edge id=":1021229962_0" function="internal">
        <lane id=":1021229962_0_0" index="0" allow="private emergency authority army vip passenger hov taxi bus coach delivery truck trailer motorcycle evehicle custom1 custom2" speed="20.95" length="15.47" shape="862.16,5973.56 864.23,5976.41 866.23,5979.10 868.95,5981.67 873.13,5984.13"/>
    </edge>
    <edge id=":1021229962_1" function="internal">
        <lane id=":1021229962_1_0" index="0" disallow="tram rail_urban rail rail_electric rail_fast ship" speed="27.78" length="15.58" shape="859.12,5977.38 873.13,5984.13"/>
        <lane id=":1021229962_1_1" index="1" disallow="tram rail_urban rail rail_electric rail_fast ship" speed="27.78" length="15.58" shape="857.73,5980.26 871.78,5987.03"/>
    </edge>
    <edge id=":2899956342_0" function="internal">
        <lane id=":2899956342_0_0" index="0" disallow="tram rail_urban rail rail_electric rail_fast ship" speed="27.78" length="13.34" shape="389.37,5751.29 401.36,5757.07"/>
        <lane id=":2899956342_0_1" index="1" disallow="tram rail_urban rail rail_electric rail_fast ship" speed="27.78" length="13.34" shape="387.97,5754.17 400.02,5759.98"/>
    </edge>
    <edge id=":2899956342_2" function="internal">
        <lane id=":2899956342_2_0" index="0" allow="private emergency authority army vip passenger hov taxi bus coach delivery truck trailer motorcycle evehicle custom1 custom2" speed="14.62" length="13.39" shape="387.48,5758.14 391.63,5756.95 394.60,5755.98 397.48,5755.81 401.36,5757.07"/>
        <lane id=":2899956342_2_1" index="1" allow="private emergency authority army vip passenger hov taxi bus coach delivery truck trailer motorcycle evehicle custom1 custom2" speed="13.58" length="13.39" shape="388.15,5761.27 391.70,5760.19 394.24,5759.23 396.70,5758.96 400.02,5759.98"/>
    </edge>
    <edge id=":2899956345_0" function="internal">
        <lane id=":2899956345_0_0" index="0" disallow="tram rail_urban rail rail_electric rail_fast ship" speed="27.78" length="0.29" shape="523.37,5815.26 523.61,5815.38"/>
        <lane id=":2899956345_0_1" index="1" disallow="tram rail_urban rail rail_electric rail_fast ship" speed="27.78" length="0.29" shape="521.95,5818.13 522.24,5818.27"/>
    </edge>
    <edge id=":2899956346_0" function="internal">
        <lane id=":2899956346_0_0" index="0" disallow="tram rail_urban rail rail_electric rail_fast ship" speed="27.78" length="0.25" shape="592.26,5847.91 592.53,5848.04"/>
        <lane id=":2899956346_0_1" index="1" disallow="tram rail_urban rail rail_electric rail_fast ship" speed="27.78" length="0.25" shape="590.89,5850.80 591.07,5850.89"/>
    </edge>
    <edge id=":2899956348_0" function="internal">
        <lane id=":2899956348_0_0" index="0" allow="private emergency authority army vip passenger hov taxi bus coach delivery truck trailer motorcycle evehicle custom1 custom2" speed="25.00" length="17.10" shape="682.38,5893.51 687.47,5895.49 691.68,5896.20 695.40,5896.28 699.04,5896.34"/>
    </edge>
    <edge id=":2899956348_1" function="internal">
        <lane id=":2899956348_1_0" index="0" disallow="tram rail_urban rail rail_electric rail_fast ship" speed="27.78" length="17.17" shape="682.38,5893.51 697.88,5900.80"/>
        <lane id=":2899956348_1_1" index="1" disallow="tram rail_urban rail rail_electric rail_fast ship" speed="27.78" length="17.17" shape="680.95,5896.37 696.52,5903.70"/>
    </edge>
    <edge id=":2899956350_0" function="internal">
        <lane id=":2899956350_0_0" index="0" allow="private emergency authority army vip passenger hov taxi bus coach delivery truck trailer motorcycle evehicle custom1 custom2" speed="5.99" length="9.08" shape="802.13,5943.32 800.70,5945.49 800.47,5947.42 801.43,5949.11 803.58,5950.56"/>
    </edge>
    <edge id=":2899956350_1" function="internal">
        <lane id=":2899956350_1_0" index="0" allow="private emergency authority army vip passenger hov taxi bus coach delivery truck trailer motorcycle evehicle custom1 custom2" speed="22.22" length="17.69" shape="802.13,5943.32 798.54,5947.29 795.90,5949.85 793.00,5952.11 788.62,5955.20"/>
        <lane id=":2899956350_1_1" index="1" allow="private emergency authority army vip passenger hov taxi bus coach delivery truck trailer motorcycle evehicle custom1 custom2" speed="22.22" length="17.69" shape="799.73,5941.20 796.29,5945.00 793.76,5947.45 790.98,5949.62 786.78,5952.58"/>
    </edge>
    <edge id=":2899956350_3" function="internal">
        <lane id=":2899956350_3_0" index="0" disallow="tram rail_urban rail rail_electric rail_fast ship" speed="27.78" length="17.74" shape="787.55,5942.93 803.58,5950.56"/>
        <lane id=":2899956350_3_1" index="1" disallow="tram rail_urban rail rail_electric rail_fast ship" speed="27.78" length="17.74" shape="786.19,5945.82 802.19,5953.44"/>
    </edge>
    <edge id=":2899956350_5" function="internal">
        <lane id=":2899956350_5_0" index="0" allow="private emergency authority army vip passenger hov taxi bus coach delivery truck trailer motorcycle evehicle custom1 custom2" speed="5.67" length="9.23" shape="786.19,5945.82 788.52,5947.32 789.40,5948.95 788.82,5950.70 786.78,5952.58"/>
    </edge>
    <edge id=":3269748465_0" function="internal">
        <lane id=":3269748465_0_0" index="0" disallow="tram rail_urban rail rail_electric rail_fast ship" speed="6.86" length="10.20" shape="1120.53,6117.50 1118.99,6119.84 1117.08,6121.12 1114.79,6121.34 1112.12,6120.50"/>
        <lane id=":3269748465_0_1" index="1" disallow="tram rail_urban rail rail_electric rail_fast ship" speed="6.07" length="7.78" shape="1120.53,6117.50 1119.59,6118.57 1118.10,6118.95 1116.07,6118.63 1113.50,6117.61"/>
    </edge>
    <edge id=":3269748465_2" function="internal">
        <lane id=":3269748465_2_0" index="0" disallow="tram rail_urban rail rail_electric rail_fast ship" speed="3.65" length="4.67" shape="1120.53,6117.50 1119.29,6118.25 1118.40,6118.27 1117.84,6117.57 1117.63,6116.14"/>
    </edge>
    <edge id=":4255577363_0" function="internal">
        <lane id=":4255577363_0_0" index="0" disallow="tram rail_urban rail rail_electric rail_fast ship" speed="3.65" length="4.67" shape="1119.34,6112.50 1120.58,6111.75 1121.47,6111.73 1122.02,6112.43 1122.24,6113.86"/>
    </edge>
    <edge id=":599424114_0" function="internal">
        <lane id=":599424114_0_0" index="0" disallow="tram rail_urban rail rail_electric rail_fast ship" speed="27.78" length="0.29" shape="520.79,5838.11 520.51,5837.97"/>
        <lane id=":599424114_0_1" index="1" disallow="tram rail_urban rail rail_electric rail_fast ship" speed="27.78" length="0.29" shape="522.15,5835.21 521.92,5835.10"/>
    </edge>
    <edge id=":599424119_0" function="internal">
        <lane id=":599424119_0_0" index="0" disallow="tram rail_urban rail rail_electric rail_fast ship" speed="27.78" length="0.27" shape="583.61,5867.73 583.32,5867.60"/>
        <lane id=":599424119_0_1" index="1" disallow="tram rail_urban rail rail_electric rail_fast ship" speed="27.78" length="0.27" shape="584.91,5864.80 584.69,5864.70"/>
    </edge>

    <edge id="-320458231#0" from="3269748465" to="4255577363" priority="4" type="highway.unclassified">
        <lane id="-320458231#0_0" index="0" disallow="tram rail_urban rail rail_electric rail_fast ship" speed="13.89" length="4.02" shape="1117.63,6116.14 1119.34,6112.50"/>
    </edge>
    <edge id="11355503" from="101019201" to="101019219" priority="9" type="highway.motorway_link" spreadType="center" shape="821.14,5011.87 743.76,5369.87 737.01,5417.61 736.01,5457.55 740.22,5506.83 752.78,5559.20 771.07,5605.87 821.23,5727.22 831.68,5759.37 836.39,5791.78 835.39,5826.02 830.73,5856.88">
        <lane id="11355503_0" index="0" allow="private emergency authority army vip passenger hov taxi bus coach delivery truck trailer motorcycle evehicle custom1 custom2" speed="22.22" length="776.22" shape="804.13,5090.57 743.76,5369.87 737.01,5417.61 736.01,5457.55 740.22,5506.83 752.78,5559.20 771.07,5605.87 821.23,5727.22 831.68,5759.37 836.39,5791.78 835.39,5826.02 832.89,5842.58"/>
    </edge>
    <edge id="11355651" from="101020793" to="101020810" priority="9" type="highway.motorway_link" spreadType="center" shape="322.75,6564.07 398.87,6213.27 404.07,6167.84 404.05,6145.01 401.01,6107.13 387.02,6052.04 348.45,5955.53 332.51,5911.78 330.27,5891.44 331.69,5866.29 337.74,5841.76">
        <lane id="11355651_0" index="0" allow="private emergency authority army vip passenger hov taxi bus coach delivery truck trailer motorcycle evehicle custom1 custom2" speed="22.22" length="651.52" shape="339.44,6487.13 398.87,6213.27 404.07,6167.84 404.05,6145.01 401.01,6107.13 387.02,6052.04 348.45,5955.53 332.51,5911.78 330.27,5891.44 331.69,5866.29 334.50,5854.89"/>
    </edge>
    <edge id="11355653" from="101020862" to="101020833" priority="9" type="highway.motorway_link" spreadType="center" shape="455.39,5804.15 425.04,5799.15 399.84,5804.46 379.83,5815.00 368.76,5825.42 356.14,5844.38 350.23,5866.43 351.03,5889.26 355.51,5903.77 362.91,5917.06 373.32,5928.46 391.80,5941.41 405.90,5946.49 436.32,5950.01 459.35,5946.44 473.44,5941.33 486.75,5934.12 511.16,5908.01 537.19,5862.34">
        <lane id="11355653_0" index="0" allow="private emergency authority army vip passenger hov taxi bus coach delivery truck trailer motorcycle evehicle custom1 custom2" speed="22.22" length="364.93" shape="435.02,5800.79 425.04,5799.15 399.84,5804.46 379.83,5815.00 368.76,5825.42 356.14,5844.38 350.23,5866.43 351.03,5889.26 355.51,5903.77 362.91,5917.06 373.32,5928.46 391.80,5941.41 405.90,5946.49 436.32,5950.01 459.35,5946.44 473.44,5941.33 486.75,5934.12 511.16,5908.01 520.87,5890.97"/>
    </edge>
    <edge id="11357565" from="101019226" to="101033831" priority="9" type="highway.motorway_link" spreadType="center" shape="921.52,6027.30 888.93,6013.46 860.52,6008.76 844.97,6008.83 822.71,6012.38 796.10,6026.36 780.46,6039.34 742.69,6087.35 727.16,6103.98 709.38,6119.06 687.14,6134.93 582.61,6192.85 563.38,6205.83 533.76,6229.46 506.28,6256.18 472.98,6297.65 449.30,6336.67 412.03,6414.35 338.16,6605.82">
        <lane id="11357565_0" index="0" allow="private emergency authority army vip passenger hov taxi bus coach delivery truck trailer motorcycle evehicle custom1 custom2" speed="22.22" length="764.42" shape="873.93,6010.98 860.52,6008.76 844.97,6008.83 822.71,6012.38 796.10,6026.36 780.46,6039.34 742.69,6087.35 727.16,6103.98 709.38,6119.06 687.14,6134.93 582.61,6192.85 563.38,6205.83 533.76,6229.46 506.28,6256.18 472.98,6297.65 449.30,6336.67 412.03,6414.35 367.41,6530.00"/>
    </edge>
    <edge id="11357881#0" from="101019219" to="2899956350" priority="9" type="highway.motorway_link" spreadType="center" shape="830.73,5856.88 807.84,5929.53 801.18,5941.98 795.48,5948.42">
        <lane id="11357881#0_0" index="0" allow="private emergency authority army vip passenger hov taxi bus coach delivery truck trailer motorcycle evehicle custom1 custom2" speed="22.22" length="68.93" shape="825.72,5878.09 809.32,5930.15 802.50,5942.90 802.13,5943.32"/>
        <lane id="11357881#0_1" index="1" allow="private emergency authority army vip passenger hov taxi bus coach delivery truck trailer motorcycle evehicle custom1 custom2" speed="22.22" length="68.93" shape="822.67,5877.13 806.36,5928.91 799.86,5941.06 799.73,5941.20"/>
    </edge>
    <edge id="11357881#1" from="2899956350" to="101035693" priority="9" type="highway.motorway_link" spreadType="center">
        <lane id="11357881#1_0" index="0" allow="private emergency authority army vip passenger hov taxi bus coach delivery truck trailer motorcycle evehicle custom1 custom2" speed="22.22" length="1.35" shape="788.62,5955.20 787.52,5955.97"/>
        <lane id="11357881#1_1" index="1" allow="private emergency authority army vip passenger hov taxi bus coach delivery truck trailer motorcycle evehicle custom1 custom2" speed="22.22" length="1.35" shape="786.78,5952.58 785.68,5953.36"/>
    </edge>
    <edge id="11357883" from="2899956348" to="101035733" priority="9" type="highway.motorway_link" spreadType="center" shape="682.05,5895.13 716.93,5897.61 736.47,5895.49 752.54,5890.68 773.39,5882.35 791.11,5867.30 806.25,5848.86 814.39,5827.69 818.84,5797.55 818.05,5782.26 815.12,5767.31 806.93,5745.93 790.38,5728.66 775.44,5715.28 755.67,5705.07 741.58,5699.47 719.57,5696.87 705.07,5697.51 690.82,5699.82 674.13,5705.60 655.42,5712.99 643.57,5719.94 617.80,5746.10 600.20,5772.02 575.22,5824.43">
        <lane id="11357883_0" index="0" allow="private emergency authority army vip passenger hov taxi bus coach delivery truck trailer motorcycle evehicle custom1 custom2" speed="22.22" length="494.18" shape="699.04,5896.34 716.93,5897.61 736.47,5895.49 752.54,5890.68 773.39,5882.35 791.11,5867.30 806.25,5848.86 814.39,5827.69 818.84,5797.55 818.05,5782.26 815.12,5767.31 806.93,5745.93 790.38,5728.66 775.44,5715.28 755.67,5705.07 741.58,5699.47 719.57,5696.87 705.07,5697.51 690.82,5699.82 674.13,5705.60 655.42,5712.99 643.57,5719.94 617.80,5746.10 600.20,5772.02 595.21,5782.49"/>
    </edge>
    <edge id="286344257" from="2899956345" to="2899956346" priority="11" type="highway.secondary" spreadType="center">
        <lane id="286344257_0" index="0" disallow="tram rail_urban rail rail_electric rail_fast ship" speed="27.78" length="75.97" shape="523.61,5815.38 592.26,5847.91"/>
        <lane id="286344257_1" index="1" disallow="tram rail_urban rail rail_electric rail_fast ship" speed="27.78" length="75.97" shape="522.24,5818.27 590.89,5850.80"/>
    </edge>
    <edge id="286344264#1" from="2899956341" to="2899956342" priority="11" type="highway.secondary" spreadType="center">
        <lane id="286344264#1_0" index="0" disallow="tram rail_urban rail rail_electric rail_fast ship" speed="27.78" length="61.45" shape="334.14,5724.34 389.37,5751.29"/>
        <lane id="286344264#1_1" index="1" disallow="tram rail_urban rail rail_electric rail_fast ship" speed="27.78" length="61.45" shape="332.74,5727.22 387.97,5754.17"/>
    </edge>
    <edge id="286344264#2" from="2899956342" to="2899956345" priority="11" type="highway.secondary" spreadType="center" shape="398.36,5757.46 456.85,5784.32 522.79,5816.76">
        <lane id="286344264#2_0" index="0" disallow="tram rail_urban rail rail_electric rail_fast ship" speed="27.78" length="135.14" shape="401.36,5757.07 457.54,5782.87 523.37,5815.26"/>
        <lane id="286344264#2_1" index="1" disallow="tram rail_urban rail rail_electric rail_fast ship" speed="27.78" length="135.14" shape="400.02,5759.98 456.16,5785.77 521.95,5818.13"/>
    </edge>
    <edge id="320458231#0" from="4255577363" to="3269748465" priority="4" type="highway.unclassified">