<?xml version="1.0" encoding="UTF-8"?>

<!-- generated on 2021-11-20 13:19:06 by Eclipse SUMO GUI Version 1.10.0
-->

<configuration xmlns:xsi="http://www.w3.org/2001/XMLSchema-instance" xsi:noNamespaceSchemaLocation="http://sumo.dlr.de/xsd/sumoConfiguration.xsd">

    <input>
        <net-file value=".\ThreeLane.net.xml"/>
    </input>

</configuration>
