<?xml version="1.0" encoding="UTF-8"?>

<!-- generated on 2021-07-17 13:34:02 by Eclipse SUMO GUI Version 1.9.2
-->

<configuration xmlns:xsi="http://www.w3.org/2001/XMLSchema-instance" xsi:noNamespaceSchemaLocation="http://sumo.dlr.de/xsd/sumoConfiguration.xsd">

    <input>
        <net-file value="C:\Users\crump\OneDrive\Documents\GitHub\Scenic-Sumo\Map\H_Intersection\H_Intersection.net.xml"/>
    </input>

</configuration>
